/*---------------------------------------------------------------------------*\
  =========                 |
  \\      /  F ield         | OpenFOAM: The Open Source CFD Toolbox
   \\    /   O peration     | Website:  https://openfoam.org
    \\  /    A nd           | Version:  dev
     \\/     M anipulation  |
\*---------------------------------------------------------------------------*/
Build  : dev-681e58bbda81
Exec   : testPhase
Date   : Jun 10 2022
Time   : 18:12:16
Host   : "pop-os"
PID    : 26470
I/O    : uncollated
Case   : /home/david/OpenFOAM/david-dev/run/CECI/testPhase/StefanProblem
nProcs : 1
sigFpe : Enabling floating point exception trapping (FOAM_SIGFPE).
fileModificationChecking : Monitoring run-time modified files using timeStampMaster (fileModificationSkew 10)
allowSystemOperations : Allowing user-supplied system call operations

// * * * * * * * * * * * * * * * * * * * * * * * * * * * * * * * * * * * * * //
Create time

Create mesh for time = 0


PIMPLE: No convergence criteria found


PIMPLE: Operating solver in transient mode with 1 outer corrector
PIMPLE: Operating solver in PISO mode


Reading field p_rgh

Reading field U

Reading/calculating face flux field phi

Selecting surfaceTensionModel liquidProperties
Selecting thermodynamics package 
{
    type            heRhoThermo;
    mixture         pureMixture;
    properties      liquid;
    energy          sensibleInternalEnergy;
}

Selecting thermodynamics package 
{
    type            heRhoThermo;
    mixture         pureMixture;
    transport       const;
    thermo          hPolynomial;
    equationOfState perfectGas;
    specie          specie;
    energy          sensibleEnthalpy;
}

Using dynamicCode for codedBase heRhoThermo_pureMixture_const_hPolynomial_perfectGas_specie___sensibleEnthalpy___ at line 17 in "/home/david/OpenFOAM/OpenFOAM-dev/etc/codeTemplates/dynamicCode/rhoThermo"
creating edge indexing 
Point found at (0.105 1 1)
on face 211
Point found at (0.105 0 1)
on face 411
Point found at (0.105 0 0)
on face 111
Point found at (0.105 1 0)
on face 311
xproduct is (-0.5 0.0525 0)
xproduct is (-0.5 0 0.0525)
xproduct is (0 -0.0525 0)
xproduct is (0 0 -0.0525)
BEFORE PASS (1 0 0)

AFTER PASS (1 0 0)
AFTER PASS (1 0 0)
AFTER PASS (1 0 0)
Selecting phaseChange model tempGrad
Hello!

Reading g

Reading hRef
Calculating field g.h

Selecting turbulence model type RAS
Selecting RAS turbulence model kEpsilon
RAS
{
    model           kEpsilon;
    turbulence      on;
    printCoeffs     on;
    Cmu             0.09;
    C1              1.44;
    C2              1.92;
    C3              0;
    sigmak          1;
    sigmaEps        1.3;
}

Creating field kinetic energy K

No fvConstraints present
Creating fvModels from "constant/fvModels"

Selecting finite volume model type VoFTurbulenceDamping
    Name: turbulenceDamping
No MRF models present

Cell 9 intArea (1 0 0)
Cell 10 intArea (1 0 0)
Cell 11 intArea (1 0 0)
Cell 10
Temp at cell 385.15
Saturation Temperature 377.659
gradient at cell 10 is 749.1
count at a value of 1
dint value of 0.01


Cell 10
Temp at cell 378.15
Saturation Temperature 377.659
gradient at cell 10 is 49.1
count at a value of 1
dint value of 0.01


Interface Area 1
Liquid Heat Xfer -510.083
Vapor Heat Xfer 1.87832
Calculated mass transfer -2.24869e-05


Point found at (0.105 0 1)
on face 411
Point found at (0.105 0 0)
on face 111
Point found at (0.105 1 0)
on face 311
Point found at (0.105 1 1)
on face 211
xproduct is (-0.5 0 0.0525)
xproduct is (-0.5 0.0525 0)
xproduct is (0 0 -0.0525)
xproduct is (0 -0.0525 0)
BEFORE PASS (1 0 0)

AFTER PASS (1 0 0)
AFTER PASS (1 0 0)
AFTER PASS (1 0 0)
Cell 9 intArea (1 0 0)
Cell 10 intArea (1 0 0)
Cell 11 intArea (1 0 0)
Cell 10
Temp at cell 385.15
Saturation Temperature 377.659
gradient at cell 10 is 749.1
count at a value of 1
dint value of 0.01


Cell 10
Temp at cell 378.15
Saturation Temperature 377.659
gradient at cell 10 is 49.1
count at a value of 1
dint value of 0.01


Interface Area 1
Liquid Heat Xfer -510.083
Vapor Heat Xfer 1.87832
Calculated mass transfer -2.24869e-05


DICPCG:  Solving for rhoSmear, Initial residual = 0.900901, Final residual = 7.19507e-17, No Iterations 1
heavyVolL=0 [0 0 0 0 0 0 0] -9.4039e-06
heavyVolV=0 [0 0 0 0 0 0 0] -9.38272e-06
Continuity Value: 0
Sharp Continuity: -2.24869e-05
Continuity2 Value: 0

Courant Number mean: 0 max: 0

Starting time loop

Courant Number mean: 0 max: 0
Interface Courant Number mean: 0 max: 0
deltaT = 0.0012
Time = 0.0012s

Point found at (0.105 0 1)
on face 411
Point found at (0.105 0 0)
on face 111
Point found at (0.105 1 0)
on face 311
Point found at (0.105 1 1)
on face 211
xproduct is (-0.5 0 0.0525)
xproduct is (-0.5 0.0525 0)
xproduct is (0 0 -0.0525)
xproduct is (0 -0.0525 0)
BEFORE PASS (1 0 0)

AFTER PASS (1 0 0)
AFTER PASS (1 0 0)
AFTER PASS (1 0 0)
smoothSolver:  Solving for alpha.water, Initial residual = 0, Final residual = 0, No Iterations 0
Phase-1 volume fraction = 0.895  Min(alpha.water) = 0  Max(alpha.water) = 1
MULES: Correcting alpha.water
MULES: Correcting alpha.water
Phase-1 volume fraction = 0.895  Min(alpha.water) = 0  Max(alpha.water) = 1
Point found at (0.105 0 1)
on face 411
Point found at (0.105 0 0)
on face 111
Point found at (0.105 1 0)
on face 311
Point found at (0.105 1 1)
on face 211
xproduct is (-0.5 0 0.0525)
xproduct is (-0.5 0.0525 0)
xproduct is (0 0 -0.0525)
xproduct is (0 -0.0525 0)
BEFORE PASS (1 0 0)

AFTER PASS (1 0 0)
AFTER PASS (1 0 0)
AFTER PASS (1 0 0)
Cell 9 intArea (1 0 0)
Cell 10 intArea (1 0 0)
Cell 11 intArea (1 0 0)
Cell 10
Temp at cell 385.15
Saturation Temperature 377.659
gradient at cell 10 is 749.1
count at a value of 1
dint value of 0.01


Cell 10
Temp at cell 378.15
Saturation Temperature 377.659
gradient at cell 10 is 49.1
count at a value of 1
dint value of 0.01


Interface Area 1
Liquid Heat Xfer -510.083
Vapor Heat Xfer 1.87832
Calculated mass transfer -2.24869e-05


DICPCG:  Solving for rhoSmear, Initial residual = 0.900901, Final residual = 7.19507e-17, No Iterations 1
heavyVolL=0 [0 0 0 0 0 0 0] -9.4039e-06
heavyVolV=0 [0 0 0 0 0 0 0] -9.38272e-06
Continuity Value: 0
Sharp Continuity: -2.24869e-05
Continuity2 Value: 0

smoothSolver:  Solving for T, Initial residual = 0.0030041, Final residual = 5.74077e-08, No Iterations 2
DICPCG:  Solving for p_rgh, Initial residual = 1, Final residual = 2.70836e-15, No Iterations 1
DICPCG:  Solving for p_rgh, Initial residual = 0.024296, Final residual = 6.51708e-17, No Iterations 1
DICPCG:  Solving for p_rgh, Initial residual = 0.0237798, Final residual = 1.24141e-17, No Iterations 1
smoothSolver:  Solving for epsilon, Initial residual = 0.116927, Final residual = 1.17744e-07, No Iterations 4
smoothSolver:  Solving for k, Initial residual = 1, Final residual = 9.72213e-07, No Iterations 3
ExecutionTime = 0.050647 s


Courant Number mean: 0.0161144 max: 0.025061
Interface Courant Number mean: 0.00021393 max: 0.021393
deltaT = 0.00144
Time = 0.00264s

Point found at (0.105 0 1)
on face 411
Point found at (0.105 0 0)
on face 111
Point found at (0.105 1 0)
on face 311
Point found at (0.105 1 1)
on face 211
xproduct is (-0.5 0 0.0525)
xproduct is (-0.5 0.0525 0)
xproduct is (0 0 -0.0525)
xproduct is (0 -0.0525 0)
BEFORE PASS (1 0 0)

AFTER PASS (1 0 0)
AFTER PASS (1 0 0)
AFTER PASS (1 0 0)
smoothSolver:  Solving for alpha.water, Initial residual = 0.000526127, Final residual = 1.0645e-16, No Iterations 1
Phase-1 volume fraction = 0.894806  Min(alpha.water) = 0  Max(alpha.water) = 1
MULES: Correcting alpha.water
MULES: Correcting alpha.water
Phase-1 volume fraction = 0.894807  Min(alpha.water) = 0  Max(alpha.water) = 1
Point found at (0.105193 0 1)
on face 411
Point found at (0.105193 0 0)
on face 111
Point found at (0.105193 1 0)
on face 311
Point found at (0.105193 1 1)
on face 211
xproduct is (-0.5 0 0.0525964)
xproduct is (-0.5 0.0525964 0)
xproduct is (0 0 -0.0525964)
xproduct is (0 -0.0525964 0)
BEFORE PASS (1 0 0)

AFTER PASS (1 0 0)
AFTER PASS (1 0 0)
AFTER PASS (1 0 0)
Cell 9 intArea (1 0 0)
Cell 10 intArea (1 0 0)
Cell 11 intArea (1 0 0)
Cell 10
Temp at cell 385.149
Saturation Temperature 377.616
gradient at cell 10 is 768.191
count at a value of 1
dint value of 0.00980727


Cell 10
Temp at cell 384.979
Saturation Temperature 377.616
gradient at cell 10 is 722.37
count at a value of 1
dint value of 0.0101927


Interface Area 1
Liquid Heat Xfer -523.081
Vapor Heat Xfer 27.6342
Calculated mass transfer -2.19224e-05


DICPCG:  Solving for rhoSmear, Initial residual = 0.900901, Final residual = 6.04738e-17, No Iterations 1
heavyVolL=0 [0 0 0 0 0 0 0] -9.16782e-06
heavyVolV=0 [0 0 0 0 0 0 0] -9.14718e-06
Continuity Value: 0
Sharp Continuity: -2.19224e-05
Continuity2 Value: 0

smoothSolver:  Solving for T, Initial residual = 3.02615e-05, Final residual = 2.51142e-07, No Iterations 1
DICPCG:  Solving for p_rgh, Initial residual = 0.0238797, Final residual = 4.53676e-16, No Iterations 1
DICPCG:  Solving for p_rgh, Initial residual = 0.0175854, Final residual = 5.37229e-17, No Iterations 1
DICPCG:  Solving for p_rgh, Initial residual = 0.0173264, Final residual = 1.71049e-17, No Iterations 1
smoothSolver:  Solving for epsilon, Initial residual = 0.0298032, Final residual = 3.53092e-08, No Iterations 3
smoothSolver:  Solving for k, Initial residual = 0.60599, Final residual = 7.89549e-08, No Iterations 4
ExecutionTime = 0.064407 s


Courant Number mean: 0.0402214 max: 0.0432205
Interface Courant Number mean: 0.000362302 max: 0.0362302
deltaT = 0.001728
Time = 0.004368s

Point found at (0.105193 0 1)
on face 411
Point found at (0.105193 0 0)
on face 111
Point found at (0.105193 1 0)
on face 311
Point found at (0.105193 1 1)
on face 211
xproduct is (-0.5 0 0.0525964)
xproduct is (-0.5 0.0525964 0)
xproduct is (0 0 -0.0525964)
xproduct is (0 -0.0525964 0)
BEFORE PASS (1 0 0)

AFTER PASS (1 0 0)
AFTER PASS (1 0 0)
AFTER PASS (1 0 0)
smoothSolver:  Solving for alpha.water, Initial residual = 0.00138377, Final residual = 1.59572e-16, No Iterations 1
Phase-1 volume fraction = 0.894288  Min(alpha.water) = 0  Max(alpha.water) = 1
MULES: Correcting alpha.water
MULES: Correcting alpha.water
Phase-1 volume fraction = 0.894293  Min(alpha.water) = 0  Max(alpha.water) = 1
Point found at (0.105704 0 1)
on face 411
Point found at (0.105704 0 0)
on face 111
Point found at (0.105704 1 0)
on face 311
Point found at (0.105704 1 1)
on face 211
xproduct is (-0.5 0 0.052852)
xproduct is (-0.5 0.052852 0)
xproduct is (0 0 -0.052852)
xproduct is (0 -0.052852 0)
BEFORE PASS (1 0 0)

AFTER PASS (1 0 0)
AFTER PASS (1 0 0)
AFTER PASS (1 0 0)
Cell 9 intArea (1 0 0)
Cell 10 intArea (1 0 0)
Cell 11 intArea (1 0 0)
Cell 10
Temp at cell 385.149
Saturation Temperature 377.577
gradient at cell 10 is 814.577
count at a value of 1
dint value of 0.0092961


Cell 10
Temp at cell 385.045
Saturation Temperature 377.577
gradient at cell 10 is 697.691
count at a value of 1
dint value of 0.0107039


Interface Area 1
Liquid Heat Xfer -554.666
Vapor Heat Xfer 26.6902
Calculated mass transfer -2.33618e-05


DICPCG:  Solving for rhoSmear, Initial residual = 0.900901, Final residual = 2.16076e-17, No Iterations 1
heavyVolL=0 [0 0 0 0 0 0 0] -9.76975e-06
heavyVolV=0 [0 0 0 0 0 0 0] -9.74775e-06
Continuity Value: 0
Sharp Continuity: -2.33618e-05
Continuity2 Value: 0

smoothSolver:  Solving for T, Initial residual = 4.12303e-05, Final residual = 4.80425e-07, No Iterations 1
DICPCG:  Solving for p_rgh, Initial residual = 0.0596746, Final residual = 7.3818e-16, No Iterations 1
DICPCG:  Solving for p_rgh, Initial residual = 0.0150017, Final residual = 6.90959e-17, No Iterations 1
DICPCG:  Solving for p_rgh, Initial residual = 0.0148408, Final residual = 2.21703e-17, No Iterations 1
smoothSolver:  Solving for epsilon, Initial residual = 0.0173698, Final residual = 6.53358e-08, No Iterations 4
smoothSolver:  Solving for k, Initial residual = 0.447066, Final residual = 5.42461e-07, No Iterations 5
ExecutionTime = 0.078239 s


Courant Number mean: 0.081078 max: 0.0857331
Interface Courant Number mean: 0.000829589 max: 0.0829589
deltaT = 0.0020736
Time = 0.0064416s

Point found at (0.105704 0 1)
on face 411
Point found at (0.105704 0 0)
on face 111
Point found at (0.105704 1 0)
on face 311
Point found at (0.105704 1 1)
on face 211
xproduct is (-0.5 0 0.052852)
xproduct is (-0.5 0.052852 0)
xproduct is (0 0 -0.052852)
xproduct is (0 -0.052852 0)
BEFORE PASS (1 0 0)

AFTER PASS (1 0 0)
AFTER PASS (1 0 0)
AFTER PASS (1 0 0)
smoothSolver:  Solving for alpha.water, Initial residual = 0.00273216, Final residual = 1.30988e-16, No Iterations 1
Phase-1 volume fraction = 0.893264  Min(alpha.water) = 0  Max(alpha.water) = 1
MULES: Correcting alpha.water
MULES: Correcting alpha.water
Phase-1 volume fraction = 0.893268  Min(alpha.water) = 0  Max(alpha.water) = 1
Point found at (0.106719 0 1)
on face 411
Point found at (0.106719 0 0)
on face 111
Point found at (0.106719 1 0)
on face 311
Point found at (0.106719 1 1)
on face 211
xproduct is (-0.5 0 0.0533595)
xproduct is (-0.5 0.0533595 0)
xproduct is (0 0 -0.0533595)
xproduct is (0 -0.0533595 0)
BEFORE PASS (1 0 0)

AFTER PASS (1 0 0)
AFTER PASS (1 0 0)
AFTER PASS (1 0 0)
Cell 9 intArea (1 0 0)
Cell 10 intArea (1 0 0)
Cell 11 intArea (1 0 0)
Cell 10
Temp at cell 384.947
Saturation Temperature 377.462
gradient at cell 10 is 638.661
count at a value of 1
dint value of 0.0117191


Interface Area 1
Liquid Heat Xfer -0
Vapor Heat Xfer 24.4319
Calculated mass transfer 1.08106e-06


DICPCG:  Solving for rhoSmear, Initial residual = 0.900901, Final residual = 3.02247e-17, No Iterations 1
heavyVolL=0 [0 0 0 0 0 0 0] 3.24433e-07
heavyVolV=0 [0 0 0 0 0 0 0] 4.51075e-07
Continuity Value: 1.08106e-06
Sharp Continuity: 1.08106e-06
Continuity2 Value: -1.08106e-06

smoothSolver:  Solving for T, Initial residual = 8.31781e-05, Final residual = 4.95791e-08, No Iterations 2
DICPCG:  Solving for p_rgh, Initial residual = 0.126784, Final residual = 1.44713e-15, No Iterations 1
DICPCG:  Solving for p_rgh, Initial residual = 0.0134635, Final residual = 1.03432e-16, No Iterations 1
DICPCG:  Solving for p_rgh, Initial residual = 0.0132417, Final residual = 3.71721e-17, No Iterations 1
smoothSolver:  Solving for epsilon, Initial residual = 0.0440602, Final residual = 5.55579e-07, No Iterations 6
smoothSolver:  Solving for k, Initial residual = 0.262838, Final residual = 7.45293e-07, No Iterations 8
ExecutionTime = 0.092657 s


Courant Number mean: 0.143161 max: 0.151526
Interface Courant Number mean: 0.00145867 max: 0.145867
deltaT = 0.00248832
Time = 0.00892992s

Point found at (0.106719 0 1)
on face 411
Point found at (0.106719 0 0)
on face 111
Point found at (0.106719 1 0)
on face 311
Point found at (0.106719 1 1)
on face 211
xproduct is (-0.5 0 0.0533595)
xproduct is (-0.5 0.0533595 0)
xproduct is (0 0 -0.0533595)
xproduct is (0 -0.0533595 0)
BEFORE PASS (1 0 0)

AFTER PASS (1 0 0)
AFTER PASS (1 0 0)
AFTER PASS (1 0 0)
smoothSolver:  Solving for alpha.water, Initial residual = 0.00477635, Final residual = 1.39874e-16, No Iterations 1
Phase-1 volume fraction = 0.89145  Min(alpha.water) = 0  Max(alpha.water) = 1
MULES: Correcting alpha.water
MULES: Correcting alpha.water
Phase-1 volume fraction = 0.891466  Min(alpha.water) = 0  Max(alpha.water) = 1
Point found at (0.1085 0 1)
on face 411
Point found at (0.1085 0 0)
on face 111
Point found at (0.1085 1 0)
on face 311
Point found at (0.1085 1 1)
on face 211
xproduct is (-0.5 0.0542501 0)
xproduct is (0 0 -0.0542501)
xproduct is (-0.5 0 0.0542501)
xproduct is (0 -0.0542501 0)
BEFORE PASS (1 0 0)

AFTER PASS (1 0 0)
AFTER PASS (1 0 0)
AFTER PASS (1 0 0)
Cell 9 intArea (1 0 0)
Cell 10 intArea (1 0 0)
Cell 11 intArea (1 0 0)
Cell 10
Temp at cell 384.53
Saturation Temperature 377.254
gradient at cell 10 is 538.941
count at a value of 1
dint value of 0.0135001


Interface Area 1
Liquid Heat Xfer -0
Vapor Heat Xfer 20.6171
Calculated mass transfer 9.12263e-07


Interface Area 1
Liquid Heat Xfer -0
Vapor Heat Xfer 20.6172
Calculated mass transfer 9.12265e-07


DICPCG:  Solving for rhoSmear, Initial residual = 0.821168, Final residual = 1.53606e-16, No Iterations 1
heavyVolL=0 [0 0 0 0 0 0 0] 4.70119e-07
heavyVolV=0 [0 0 0 0 0 0 0] 6.53804e-07
Continuity Value: 1.82453e-06
Sharp Continuity: 1.82453e-06
Continuity2 Value: -1.82453e-06

smoothSolver:  Solving for T, Initial residual = 0.000126985, Final residual = 1.53347e-07, No Iterations 2
DICPCG:  Solving for p_rgh, Initial residual = 0.330605, Final residual = 2.54702e-15, No Iterations 1
DICPCG:  Solving for p_rgh, Initial residual = 0.0135854, Final residual = 1.71153e-16, No Iterations 1
DICPCG:  Solving for p_rgh, Initial residual = 0.0134435, Final residual = 1.15736e-16, No Iterations 1
smoothSolver:  Solving for epsilon, Initial residual = 0.0686987, Final residual = 5.92121e-07, No Iterations 9
smoothSolver:  Solving for k, Initial residual = 0.154072, Final residual = 3.53549e-07, No Iterations 12
ExecutionTime = 0.106294 s


Courant Number mean: 0.234019 max: 0.24787
Interface Courant Number mean: 0.00484449 max: 0.247802
deltaT = 0.00298598
Time = 0.0119159s

Point found at (0.1085 0 1)
on face 411
Point found at (0.1085 0 0)
on face 111
Point found at (0.1085 1 0)
on face 311
Point found at (0.1085 1 1)
on face 211
xproduct is (-0.5 0.0542501 0)
xproduct is (0 0 -0.0542501)
xproduct is (-0.5 0 0.0542501)
xproduct is (0 -0.0542501 0)
BEFORE PASS (1 0 0)

AFTER PASS (1 0 0)
AFTER PASS (1 0 0)
AFTER PASS (1 0 0)
smoothSolver:  Solving for alpha.water, Initial residual = 0.00765819, Final residual = 1.63131e-16, No Iterations 1
Phase-1 volume fraction = 0.888491  Min(alpha.water) = 0  Max(alpha.water) = 1
MULES: Correcting alpha.water
MULES: Correcting alpha.water
Phase-1 volume fraction = 0.888524  Min(alpha.water) = 0  Max(alpha.water) = 1
Point found at (0.111395 0 0)
on face 112
Point found at (0.111395 1 0)
on face 312
Point found at (0.111395 1 1)
on face 212
Point found at (0.111395 0 1)
on face 412
xproduct is (0 -0.0556976 0)
xproduct is (0 0 -0.0556976)
xproduct is (-0.5 0.0556976 0)
xproduct is (-0.5 0 0.0556976)
BEFORE PASS (1 0 0)

AFTER PASS (1 0 0)
AFTER PASS (1 0 0)
AFTER PASS (1 0 0)
Cell 10 intArea (1 0 0)
Cell 11 intArea (1 0 0)
Cell 12 intArea (1 0 0)
Cell 11
Temp at cell 385.132
Saturation Temperature 376.841
gradient at cell 11 is 1296.47
count at a value of 1
dint value of 0.00639518


Interface Area 1
Liquid Heat Xfer -0
Vapor Heat Xfer 49.5963
Calculated mass transfer 2.19453e-06


DICPCG:  Solving for rhoSmear, Initial residual = 0.900901, Final residual = 1.11231e-16, No Iterations 1
heavyVolL=0 [0 0 0 0 0 0 0] 4.72405e-07
heavyVolV=0 [0 0 0 0 0 0 0] 9.16255e-07
Continuity Value: 2.19453e-06
Sharp Continuity: 2.19453e-06
Continuity2 Value: -2.19453e-06

smoothSolver:  Solving for T, Initial residual = 0.000164163, Final residual = 3.74723e-07, No Iterations 2
DICPCG:  Solving for p_rgh, Initial residual = 0.885085, Final residual = 7.9282e-15, No Iterations 1
DICPCG:  Solving for p_rgh, Initial residual = 0.0888752, Final residual = 2.67103e-15, No Iterations 1
DICPCG:  Solving for p_rgh, Initial residual = 0.0861746, Final residual = 1.22394e-15, No Iterations 1
smoothSolver:  Solving for epsilon, Initial residual = 0.0997841, Final residual = 4.50633e-07, No Iterations 12
smoothSolver:  Solving for k, Initial residual = 0.111899, Final residual = 7.42732e-07, No Iterations 14
ExecutionTime = 0.119952 s


Courant Number mean: 0.35824 max: 0.379503
Interface Courant Number mean: 0.00378989 max: 0.378989
deltaT = 0.00358318
Time = 0.0154991s

Point found at (0.111395 1 0)
on face 312
Point found at (0.111395 1 1)
on face 212
Point found at (0.111395 0 1)
on face 412
Point found at (0.111395 0 0)
on face 112
xproduct is (0 0 -0.0556976)
xproduct is (0 -0.0556976 0)
xproduct is (-0.5 0 0.0556976)
xproduct is (-0.5 0.0556976 0)
BEFORE PASS (1 0 0)

AFTER PASS (1 0 0)
AFTER PASS (1 0 0)
AFTER PASS (1 0 0)
smoothSolver:  Solving for alpha.water, Initial residual = 0.0114988, Final residual = 1.80804e-16, No Iterations 1
Phase-1 volume fraction = 0.88397  Min(alpha.water) = 0  Max(alpha.water) = 1
MULES: Correcting alpha.water
MULES: Correcting alpha.water
Phase-1 volume fraction = 0.883971  Min(alpha.water) = 0  Max(alpha.water) = 1
Point found at (0.115789 0 0)
on face 112
Point found at (0.115789 1 0)
on face 312
Point found at (0.115789 1 1)
on face 212
Point found at (0.115789 0 1)
on face 412
xproduct is (0 -0.0578943 0)
xproduct is (-0.5 0.0578943 0)
xproduct is (0 0 -0.0578943)
xproduct is (-0.5 0 0.0578943)
BEFORE PASS (1 0 0)

AFTER PASS (1 0 0)
AFTER PASS (1 0 0)
AFTER PASS (1 0 0)
Cell 10 intArea (1 0 0)
Cell 11 intArea (1 0 0)
Cell 12 intArea (1 0 0)
Cell 11
Temp at cell 385.115
Saturation Temperature 376.384
gradient at cell 11 is 809.331
count at a value of 1
dint value of 0.0107886


Interface Area 1
Liquid Heat Xfer -0
Vapor Heat Xfer 30.9609
Calculated mass transfer 1.36995e-06


Interface Area 1
Liquid Heat Xfer -0
Vapor Heat Xfer 30.961
Calculated mass transfer 1.36995e-06


DICPCG:  Solving for rhoSmear, Initial residual = 0.821168, Final residual = 1.70225e-16, No Iterations 1
heavyVolL=0 [0 0 0 0 0 0 0] 5.06464e-07
heavyVolV=0 [0 0 0 0 0 0 0] 9.82448e-07
Continuity Value: 2.73991e-06
Sharp Continuity: 2.73991e-06
Continuity2 Value: -2.73991e-06

smoothSolver:  Solving for T, Initial residual = 0.000175826, Final residual = 7.41939e-07, No Iterations 2
DICPCG:  Solving for p_rgh, Initial residual = 0.288364, Final residual = 7.84797e-15, No Iterations 1
DICPCG:  Solving for p_rgh, Initial residual = 0.00989626, Final residual = 2.56452e-16, No Iterations 1
DICPCG:  Solving for p_rgh, Initial residual = 0.00896031, Final residual = 1.13414e-16, No Iterations 1
smoothSolver:  Solving for epsilon, Initial residual = 0.112961, Final residual = 7.83077e-07, No Iterations 14
smoothSolver:  Solving for k, Initial residual = 0.087929, Final residual = 5.93785e-07, No Iterations 17
ExecutionTime = 0.133663 s


Courant Number mean: 0.521869 max: 0.554278
Interface Courant Number mean: 0.0109874 max: 0.553864
deltaT = 0.00429982
Time = 0.0197989s

Point found at (0.115789 0 0)
on face 112
Point found at (0.115789 1 0)
on face 312
Point found at (0.115789 1 1)
on face 212
Point found at (0.115789 0 1)
on face 412
xproduct is (0 -0.0578943 0)
xproduct is (-0.5 0.0578943 0)
xproduct is (0 0 -0.0578943)
xproduct is (-0.5 0 0.0578943)
BEFORE PASS (1 0 0)

AFTER PASS (1 0 0)
AFTER PASS (1 0 0)
AFTER PASS (1 0 0)
smoothSolver:  Solving for alpha.water, Initial residual = 0.0163006, Final residual = 1.18161e-16, No Iterations 1
Phase-1 volume fraction = 0.87732  Min(alpha.water) = 0  Max(alpha.water) = 1
MULES: Correcting alpha.water
MULES: Correcting alpha.water
Phase-1 volume fraction = 0.877375  Min(alpha.water) = 0  Max(alpha.water) = 1
Point found at (0.122113 1 1)
on face 213
Point found at (0.122113 0 1)
on face 413
Point found at (0.122113 0 0)
on face 113
Point found at (0.122113 1 0)
on face 313
xproduct is (0 -0.0610564 0)
xproduct is (-0.5 0.0610564 0)
xproduct is (0 0 -0.0610564)
xproduct is (-0.5 0 0.0610564)
BEFORE PASS (1 0 0)

AFTER PASS (1 0 0)
AFTER PASS (1 0 0)
AFTER PASS (1 0 0)
Cell 11 intArea (1 0 0)
Cell 12 intArea (1 0 0)
Cell 13 intArea (1 0 0)
Cell 12
Temp at cell 385.136
Saturation Temperature 375.629
gradient at cell 12 is 1336.49
count at a value of 1
dint value of 0.00711289


Interface Area 1
Liquid Heat Xfer -0
Vapor Heat Xfer 51.1275
Calculated mass transfer 2.26228e-06


Interface Area 1
Liquid Heat Xfer -0
Vapor Heat Xfer 25.5638
Calculated mass transfer 1.13114e-06


Interface Area 0
Liquid Heat Xfer -0
Vapor Heat Xfer 51.1276
Calculated mass transfer 0


DICPCG:  Solving for rhoSmear, Initial residual = 0.821168, Final residual = 7.67854e-17, No Iterations 1
heavyVolL=0 [0 0 0 0 0 0 0] 4.25409e-07
heavyVolV=0 [0 0 0 0 0 0 0] 1.28388e-06
Continuity Value: 3.39342e-06
Sharp Continuity: 3.39342e-06
Continuity2 Value: -3.39342e-06

smoothSolver:  Solving for T, Initial residual = 0.000182398, Final residual = 1.74309e-07, No Iterations 3
DICPCG:  Solving for p_rgh, Initial residual = 0.974907, Final residual = 2.10261e-14, No Iterations 1
DICPCG:  Solving for p_rgh, Initial residual = 0.120041, Final residual = 4.11152e-15, No Iterations 1
DICPCG:  Solving for p_rgh, Initial residual = 0.100202, Final residual = 2.31607e-15, No Iterations 1
smoothSolver:  Solving for epsilon, Initial residual = 0.0580483, Final residual = 6.90642e-07, No Iterations 15
smoothSolver:  Solving for k, Initial residual = 0.0604573, Final residual = 7.91896e-07, No Iterations 19
ExecutionTime = 0.147565 s


Courant Number mean: 0.734373 max: 0.782481
Interface Courant Number mean: 0.0234357 max: 0.782066
deltaT = 0.00515978
Time = 0.0249587s

Point found at (0.122113 1 1)
on face 213
Point found at (0.122113 0 1)
on face 413
Point found at (0.122113 0 0)
on face 113
Point found at (0.122113 1 0)
on face 313
xproduct is (0 -0.0610564 0)
xproduct is (-0.5 0.0610564 0)
xproduct is (0 0 -0.0610564)
xproduct is (-0.5 0 0.0610564)
BEFORE PASS (1 0 0)

AFTER PASS (1 0 0)
AFTER PASS (1 0 0)
AFTER PASS (1 0 0)
smoothSolver:  Solving for alpha.water, Initial residual = 0.0217293, Final residual = 1.12681e-16, No Iterations 1
Phase-1 volume fraction = 0.867985  Min(alpha.water) = 0  Max(alpha.water) = 1
MULES: Correcting alpha.water
MULES: Correcting alpha.water
Phase-1 volume fraction = 0.867991  Min(alpha.water) = 0  Max(alpha.water) = 1
Point found at (0.131108 0 1)
on face 414
Point found at (0.131108 0 0)
on face 114
Point found at (0.131108 1 1)
on face 214
Point found at (0.131108 1 0)
on face 214
xproduct is (0 -0.0655541 0)
xproduct is (-0.5 0.0655541 0)
xproduct is (0 0 -0.0655541)
xproduct is (-0.5 0 0.0655541)
BEFORE PASS (1 0 0)

AFTER PASS (1 0 0)
AFTER PASS (1 0 0)
AFTER PASS (1 0 0)
Cell 12 intArea (1 0 0)
Cell 13 intArea (1 0 0)
Cell 14 intArea (1 0 0)
Cell 12
Temp at cell 385.122
Saturation Temperature 374.837
gradient at cell 12 is 89.4359
count at a value of 1
dint value of 0.115


Interface Area 1
Liquid Heat Xfer -0
Vapor Heat Xfer 3.42136
Calculated mass transfer 1.51388e-07


Interface Area 1
Liquid Heat Xfer -0
Vapor Heat Xfer 1.71068
Calculated mass transfer 7.5694e-08


Interface Area 1
Liquid Heat Xfer -0
Vapor Heat Xfer 1.71069
Calculated mass transfer 7.56941e-08


Interface Area 0
Liquid Heat Xfer -0
Vapor Heat Xfer 1.71069
Calculated mass transfer 0


Interface Area 0
Liquid Heat Xfer -0
Vapor Heat Xfer 3.42137
Calculated mass transfer 0


DICPCG:  Solving for rhoSmear, Initial residual = 0.841121, Final residual = 6.82272e-17, No Iterations 1
heavyVolL=0 [0 0 0 0 0 0 0] 1.654e-08
heavyVolV=0 [0 0 0 0 0 0 0] 1.02196e-07
Continuity Value: 3.02776e-07
Sharp Continuity: 3.02776e-07
Continuity2 Value: -3.02776e-07

smoothSolver:  Solving for T, Initial residual = 0.000170278, Final residual = 5.38158e-07, No Iterations 3
DICPCG:  Solving for p_rgh, Initial residual = 0.886233, Final residual = 2.16351e-14, No Iterations 1
DICPCG:  Solving for p_rgh, Initial residual = 0.0216822, Final residual = 1.21797e-15, No Iterations 1
DICPCG:  Solving for p_rgh, Initial residual = 0.0176021, Final residual = 8.67698e-16, No Iterations 1
smoothSolver:  Solving for epsilon, Initial residual = 0.0711929, Final residual = 5.78245e-07, No Iterations 18
smoothSolver:  Solving for k, Initial residual = 0.0358985, Final residual = 6.86678e-07, No Iterations 20
ExecutionTime = 0.161617 s


Courant Number mean: 1.00826 max: 1.07925
Interface Courant Number mean: 0.0534623 max: 1.07867
deltaT = 0.00478088
Time = 0.0297396s

Point found at (0.131108 0 1)
on face 414
Point found at (0.131108 0 0)
on face 114
Point found at (0.131108 1 1)
on face 214
Point found at (0.131108 1 0)
on face 214
xproduct is (0 -0.0655541 0)
xproduct is (-0.5 0.0655541 0)
xproduct is (0 0 -0.0655541)
xproduct is (-0.5 0 0.0655541)
BEFORE PASS (1 0 0)

AFTER PASS (1 0 0)
AFTER PASS (1 0 0)
AFTER PASS (1 0 0)
smoothSolver:  Solving for alpha.water, Initial residual = 0.0217205, Final residual = 1.95415e-16, No Iterations 1
Phase-1 volume fraction = 0.857991  Min(alpha.water) = 0  Max(alpha.water) = 1
MULES: Correcting alpha.water
MULES: Correcting alpha.water
Phase-1 volume fraction = 0.858003  Min(alpha.water) = 0  Max(alpha.water) = 1
Point found at (0.140843 1 0)
on face 315
Point found at (0.140843 0 0)
on face 315
Point found at (0.140843 0 1)
on face 115
Point found at (0.140843 1 1)
on face 415
xproduct is (0 -0.0704215 0)
xproduct is (-0.5 0.0704215 0)
xproduct is (0 0 -0.0704215)
xproduct is (-0.5 0 0.0704215)
BEFORE PASS (1 0 0)

AFTER PASS (1 0 0)
AFTER PASS (1 0 0)
AFTER PASS (1 0 0)
Cell 13 intArea (1 0 0)
Cell 14 intArea (1 0 0)
Cell 15 intArea (1 0 0)
Cell 13
Temp at cell 385.126
Saturation Temperature 373.829
gradient at cell 13 is 90.3715
count at a value of 1
dint value of 0.125


Interface Area 1
Liquid Heat Xfer -0
Vapor Heat Xfer 3.45715
Calculated mass transfer 1.52971e-07


Interface Area 1
Liquid Heat Xfer -0
Vapor Heat Xfer 1.72858
Calculated mass transfer 7.64858e-08


Interface Area 1
Liquid Heat Xfer -0
Vapor Heat Xfer 1.72858
Calculated mass transfer 7.64859e-08


Interface Area 0
Liquid Heat Xfer -0
Vapor Heat Xfer 1.72858
Calculated mass transfer 0


Interface Area 0
Liquid Heat Xfer -0
Vapor Heat Xfer 3.45717
Calculated mass transfer 0


DICPCG:  Solving for rhoSmear, Initial residual = 0.841121, Final residual = 8.58184e-17, No Iterations 1
heavyVolL=0 [0 0 0 0 0 0 0] 1.19928e-08
heavyVolV=0 [0 0 0 0 0 0 0] 1.03282e-07
Continuity Value: 3.05943e-07
Sharp Continuity: 3.05943e-07
Continuity2 Value: -3.05943e-07

smoothSolver:  Solving for T, Initial residual = 0.000123268, Final residual = 3.99885e-07, No Iterations 3
DICPCG:  Solving for p_rgh, Initial residual = 0.829645, Final residual = 1.2033e-13, No Iterations 1
DICPCG:  Solving for p_rgh, Initial residual = 0.106246, Final residual = 4.21553e-15, No Iterations 1
DICPCG:  Solving for p_rgh, Initial residual = 0.0882371, Final residual = 3.64655e-15, No Iterations 1
smoothSolver:  Solving for epsilon, Initial residual = 0.0390986, Final residual = 6.68806e-07, No Iterations 14
smoothSolver:  Solving for k, Initial residual = 0.0219448, Final residual = 7.22766e-07, No Iterations 16
ExecutionTime = 0.176071 s


Courant Number mean: 1.03249 max: 1.11298
Interface Courant Number mean: 0.0551819 max: 1.11177
deltaT = 0.00429558
Time = 0.0340351s

Point found at (0.140843 1 0)
on face 315
Point found at (0.140843 0 0)
on face 315
Point found at (0.140843 0 1)
on face 115
Point found at (0.140843 1 1)
on face 415
xproduct is (0 -0.0704215 0)
xproduct is (-0.5 0.0704215 0)
xproduct is (0 0 -0.0704215)
xproduct is (-0.5 0 0.0704215)
BEFORE PASS (1 0 0)

AFTER PASS (1 0 0)
AFTER PASS (1 0 0)
AFTER PASS (1 0 0)
smoothSolver:  Solving for alpha.water, Initial residual = 0.0205048, Final residual = 1.89466e-16, No Iterations 1
Phase-1 volume fraction = 0.848003  Min(alpha.water) = 0  Max(alpha.water) = 1
MULES: Correcting alpha.water
MULES: Correcting alpha.water
Phase-1 volume fraction = 0.848015  Min(alpha.water) = 0  Max(alpha.water) = 1
Point found at (0.1507 0 1)
on face 416
Point found at (0.1507 0 0)
on face 116
Point found at (0.1507 1 1)
on face 216
Point found at (0.1507 1 0)
on face 216
xproduct is (-0.5 0.0753498 0)
xproduct is (-0.5 0 0.0753498)
xproduct is (0 -0.0753498 0)
xproduct is (0 0 -0.0753498)
BEFORE PASS (1 0 0)

AFTER PASS (1 0 0)
AFTER PASS (1 0 0)
AFTER PASS (1 0 0)
Cell 14 intArea (1 0 0)
Cell 15 intArea (1 0 0)
Cell 16 intArea (1 0 0)
Cell 14
Temp at cell 385.118
Saturation Temperature 372.982
gradient at cell 14 is 89.8941
count at a value of 1
dint value of 0.135


Interface Area 1
Liquid Heat Xfer -0
Vapor Heat Xfer 3.43889
Calculated mass transfer 1.52163e-07


Interface Area 1
Liquid Heat Xfer -0
Vapor Heat Xfer 1.71945
Calculated mass transfer 7.60817e-08


Interface Area 1
Liquid Heat Xfer -0
Vapor Heat Xfer 1.71945
Calculated mass transfer 7.60818e-08


Interface Area 0
Liquid Heat Xfer -0
Vapor Heat Xfer 1.71945
Calculated mass transfer 0


Interface Area 0
Liquid Heat Xfer -0
Vapor Heat Xfer 1.71945
Calculated mass transfer 0


Interface Area 0
Liquid Heat Xfer -0
Vapor Heat Xfer 3.4389
Calculated mass transfer 0


DICPCG:  Solving for rhoSmear, Initial residual = 0.841121, Final residual = 1.53347e-16, No Iterations 1
heavyVolL=0 [0 0 0 0 0 0 0] 1.19289e-08
heavyVolV=0 [0 0 0 0 0 0 0] 1.02745e-07
Continuity Value: 3.04327e-07
Sharp Continuity: 3.04327e-07
Continuity2 Value: -3.04327e-07

smoothSolver:  Solving for T, Initial residual = 9.74917e-05, Final residual = 7.19003e-07, No Iterations 2
DICPCG:  Solving for p_rgh, Initial residual = 0.858799, Final residual = 7.85769e-14, No Iterations 1
DICPCG:  Solving for p_rgh, Initial residual = 0.101719, Final residual = 4.72047e-15, No Iterations 1
DICPCG:  Solving for p_rgh, Initial residual = 0.0868633, Final residual = 2.34197e-15, No Iterations 1
smoothSolver:  Solving for epsilon, Initial residual = 0.0381658, Final residual = 9.91939e-07, No Iterations 9
smoothSolver:  Solving for k, Initial residual = 0.016117, Final residual = 8.73965e-07, No Iterations 15
ExecutionTime = 0.190795 s


Courant Number mean: 1.00421 max: 1.08712
Interface Courant Number mean: 0.0647088 max: 1.08627
deltaT = 0.00395136
Time = 0.0379865s

Point found at (0.1507 0 1)
on face 416
Point found at (0.1507 0 0)
on face 116
Point found at (0.1507 1 1)
on face 216
Point found at (0.1507 1 0)
on face 216
xproduct is (-0.5 0.0753498 0)
xproduct is (-0.5 0 0.0753498)
xproduct is (0 -0.0753498 0)
xproduct is (0 0 -0.0753498)
BEFORE PASS (1 0 0)

AFTER PASS (1 0 0)
AFTER PASS (1 0 0)
AFTER PASS (1 0 0)
smoothSolver:  Solving for alpha.water, Initial residual = 0.0193893, Final residual = 1.46744e-16, No Iterations 1
Phase-1 volume fraction = 0.838015  Min(alpha.water) = 0  Max(alpha.water) = 1
MULES: Correcting alpha.water
MULES: Correcting alpha.water
Phase-1 volume fraction = 0.838029  Min(alpha.water) = 0  Max(alpha.water) = 1
Point found at (0.160613 1 0)
on face 317
Point found at (0.160613 0 0)
on face 317
Point found at (0.160613 0 1)
on face 117
Point found at (0.160613 1 1)
on face 417
xproduct is (-0.5 0.0803065 0)
xproduct is (-0.5 0 0.0803065)
xproduct is (0 -0.0803065 0)
xproduct is (0 0 -0.0803065)
BEFORE PASS (1 0 0)

AFTER PASS (1 0 0)
AFTER PASS (1 0 0)
AFTER PASS (1 0 0)
Cell 15 intArea (1 0 0)
Cell 16 intArea (1 0 0)
Cell 17 intArea (1 0 0)
Cell 15
Temp at cell 385.117
Saturation Temperature 372.268
gradient at cell 15 is 88.6201
count at a value of 1
dint value of 0.145


Interface Area 1
Liquid Heat Xfer -0
Vapor Heat Xfer 3.39015
Calculated mass transfer 1.50007e-07


Interface Area 1
Liquid Heat Xfer -0
Vapor Heat Xfer 1.69508
Calculated mass transfer 7.50034e-08


Interface Area 1
Liquid Heat Xfer -0
Vapor Heat Xfer 1.69508
Calculated mass transfer 7.50035e-08


Interface Area 0
Liquid Heat Xfer -0
Vapor Heat Xfer 1.69508
Calculated mass transfer 0


Interface Area 0
Liquid Heat Xfer -0
Vapor Heat Xfer 1.69508
Calculated mass transfer 0


Interface Area 0
Liquid Heat Xfer -0
Vapor Heat Xfer 3.39017
Calculated mass transfer 0


DICPCG:  Solving for rhoSmear, Initial residual = 0.841121, Final residual = 8.84659e-17, No Iterations 1
heavyVolL=0 [0 0 0 0 0 0 0] 1.17596e-08
heavyVolV=0 [0 0 0 0 0 0 0] 1.01294e-07
Continuity Value: 3.00014e-07
Sharp Continuity: 3.00014e-07
Continuity2 Value: -3.00014e-07

smoothSolver:  Solving for T, Initial residual = 7.83963e-05, Final residual = 4.11243e-07, No Iterations 2
DICPCG:  Solving for p_rgh, Initial residual = 0.869765, Final residual = 1.29406e-13, No Iterations 1
DICPCG:  Solving for p_rgh, Initial residual = 0.0999855, Final residual = 2.93731e-15, No Iterations 1
DICPCG:  Solving for p_rgh, Initial residual = 0.0860152, Final residual = 2.00081e-15, No Iterations 1
smoothSolver:  Solving for epsilon, Initial residual = 0.0384044, Final residual = 7.9202e-07, No Iterations 9
smoothSolver:  Solving for k, Initial residual = 0.0181425, Final residual = 5.8534e-07, No Iterations 14
ExecutionTime = 0.20483 s


Courant Number mean: 0.982295 max: 1.06983
Interface Courant Number mean: 0.0636621 max: 1.06891
deltaT = 0.00369343
Time = 0.0416799s

Point found at (0.160613 1 0)
on face 317
Point found at (0.160613 0 0)
on face 317
Point found at (0.160613 0 1)
on face 117
Point found at (0.160613 1 1)
on face 417
xproduct is (-0.5 0.0803065 0)
xproduct is (-0.5 0 0.0803065)
xproduct is (0 -0.0803065 0)
xproduct is (0 0 -0.0803065)
BEFORE PASS (1 0 0)

AFTER PASS (1 0 0)
AFTER PASS (1 0 0)
AFTER PASS (1 0 0)
smoothSolver:  Solving for alpha.water, Initial residual = 0.0184266, Final residual = 1.37328e-16, No Iterations 1
Phase-1 volume fraction = 0.82803  Min(alpha.water) = 0  Max(alpha.water) = 1
MULES: Correcting alpha.water
MULES: Correcting alpha.water
Phase-1 volume fraction = 0.828045  Min(alpha.water) = 0  Max(alpha.water) = 1
Point found at (0.170557 0 1)
on face 418
Point found at (0.170557 0 0)
on face 118
Point found at (0.170557 1 1)
on face 218
Point found at (0.170557 1 0)
on face 218
xproduct is (-0.5 0.0852785 0)
xproduct is (-0.5 0 0.0852785)
xproduct is (0 -0.0852785 0)
xproduct is (0 0 -0.0852785)
BEFORE PASS (1 0 0)

AFTER PASS (1 0 0)
AFTER PASS (1 0 0)
AFTER PASS (1 0 0)
Cell 16 intArea (1 0 0)
Cell 17 intArea (1 0 0)
Cell 18 intArea (1 0 0)
Cell 16
Temp at cell 385.117
Saturation Temperature 371.658
gradient at cell 16 is 86.8303
count at a value of 1
dint value of 0.155


Interface Area 1
Liquid Heat Xfer -0
Vapor Heat Xfer 3.32168
Calculated mass transfer 1.46977e-07


Interface Area 1
Liquid Heat Xfer -0
Vapor Heat Xfer 1.66084
Calculated mass transfer 7.34886e-08


Interface Area 1
Liquid Heat Xfer -0
Vapor Heat Xfer 1.66084
Calculated mass transfer 7.34887e-08


Interface Area 0
Liquid Heat Xfer -0
Vapor Heat Xfer 1.66085
Calculated mass transfer 0


Interface Area 0
Liquid Heat Xfer -0
Vapor Heat Xfer 1.66085
Calculated mass transfer 0


Interface Area 0
Liquid Heat Xfer -0
Vapor Heat Xfer 3.3217
Calculated mass transfer 0


DICPCG:  Solving for rhoSmear, Initial residual = 0.841121, Final residual = 6.93789e-17, No Iterations 1
heavyVolL=0 [0 0 0 0 0 0 0] 8.26848e-09
heavyVolV=0 [0 0 0 0 0 0 0] 9.92501e-08
Continuity Value: 2.93954e-07
Sharp Continuity: 2.93954e-07
Continuity2 Value: -2.93954e-07

smoothSolver:  Solving for T, Initial residual = 6.44967e-05, Final residual = 2.5216e-07, No Iterations 2
DICPCG:  Solving for p_rgh, Initial residual = 0.876862, Final residual = 3.12125e-14, No Iterations 1
DICPCG:  Solving for p_rgh, Initial residual = 0.0998, Final residual = 2.19412e-15, No Iterations 1
DICPCG:  Solving for p_rgh, Initial residual = 0.0863946, Final residual = 1.22521e-15, No Iterations 1
smoothSolver:  Solving for epsilon, Initial residual = 0.0397486, Final residual = 4.54818e-07, No Iterations 9
smoothSolver:  Solving for k, Initial residual = 0.0196286, Final residual = 9.58398e-07, No Iterations 12
ExecutionTime = 0.218924 s


Courant Number mean: 0.965606 max: 1.05759
Interface Courant Number mean: 0.0629314 max: 1.05665
deltaT = 0.00349232
Time = 0.0451722s

Point found at (0.170557 0 1)
on face 418
Point found at (0.170557 0 0)
on face 118
Point found at (0.170557 1 1)
on face 218
Point found at (0.170557 1 0)
on face 218
xproduct is (-0.5 0.0852785 0)
xproduct is (-0.5 0 0.0852785)
xproduct is (0 -0.0852785 0)
xproduct is (0 0 -0.0852785)
BEFORE PASS (1 0 0)

AFTER PASS (1 0 0)
AFTER PASS (1 0 0)
AFTER PASS (1 0 0)
smoothSolver:  Solving for alpha.water, Initial residual = 0.017566, Final residual = 1.16294e-16, No Iterations 1
Phase-1 volume fraction = 0.818045  Min(alpha.water) = 0  Max(alpha.water) = 1
MULES: Correcting alpha.water
MULES: Correcting alpha.water
Phase-1 volume fraction = 0.81806  Min(alpha.water) = 0  Max(alpha.water) = 1
Point found at (0.180518 0 0)
on face 119
Point found at (0.180518 1 1)
on face 219
Point found at (0.180518 0 1)
on face 419
Point found at (0.180518 1 0)
on face 219
xproduct is (-0.5 0.0902592 0)
xproduct is (-0.5 0 0.0902592)
xproduct is (0 -0.0902592 0)
xproduct is (0 0 -0.0902592)
BEFORE PASS (1 0 0)

AFTER PASS (1 0 0)
AFTER PASS (1 0 0)
AFTER PASS (1 0 0)
Cell 17 intArea (1 0 0)
Cell 18 intArea (1 0 0)
Cell 19 intArea (1 0 0)
Cell 17
Temp at cell 385.117
Saturation Temperature 371.135
gradient at cell 17 is 84.7386
count at a value of 1
dint value of 0.165


Interface Area 1
Liquid Heat Xfer -0
Vapor Heat Xfer 3.24166
Calculated mass transfer 1.43436e-07


Interface Area 1
Liquid Heat Xfer -0
Vapor Heat Xfer 1.62083
Calculated mass transfer 7.17183e-08


Interface Area 1
Liquid Heat Xfer -0
Vapor Heat Xfer 1.62083
Calculated mass transfer 7.17184e-08


Interface Area 0
Liquid Heat Xfer -0
Vapor Heat Xfer 1.62084
Calculated mass transfer 0


Interface Area 0
Liquid Heat Xfer -0
Vapor Heat Xfer 1.62084
Calculated mass transfer 0


Interface Area 0
Liquid Heat Xfer -0
Vapor Heat Xfer 3.24168
Calculated mass transfer 0


DICPCG:  Solving for rhoSmear, Initial residual = 0.841121, Final residual = 1.73062e-16, No Iterations 1
heavyVolL=0 [0 0 0 0 0 0 0] 8.06926e-09
heavyVolV=0 [0 0 0 0 0 0 0] 9.68604e-08
Continuity Value: 2.86873e-07
Sharp Continuity: 2.86873e-07
Continuity2 Value: -2.86873e-07

smoothSolver:  Solving for T, Initial residual = 5.44171e-05, Final residual = 1.66583e-07, No Iterations 2
DICPCG:  Solving for p_rgh, Initial residual = 0.881942, Final residual = 5.05227e-14, No Iterations 1
DICPCG:  Solving for p_rgh, Initial residual = 0.100298, Final residual = 1.66293e-15, No Iterations 1
DICPCG:  Solving for p_rgh, Initial residual = 0.0869842, Final residual = 9.5091e-16, No Iterations 1
smoothSolver:  Solving for epsilon, Initial residual = 0.0404288, Final residual = 5.42881e-07, No Iterations 8
smoothSolver:  Solving for k, Initial residual = 0.0201992, Final residual = 8.87799e-07, No Iterations 11
ExecutionTime = 0.233041 s


Courant Number mean: 0.951775 max: 1.04852
Interface Courant Number mean: 0.0623953 max: 1.04759
deltaT = 0.00333072
Time = 0.048503s

Point found at (0.180518 0 0)
on face 119
Point found at (0.180518 1 1)
on face 219
Point found at (0.180518 0 1)
on face 419
Point found at (0.180518 1 0)
on face 219
xproduct is (-0.5 0.0902592 0)
xproduct is (-0.5 0 0.0902592)
xproduct is (0 -0.0902592 0)
xproduct is (0 0 -0.0902592)
BEFORE PASS (1 0 0)

AFTER PASS (1 0 0)
AFTER PASS (1 0 0)
AFTER PASS (1 0 0)
smoothSolver:  Solving for alpha.water, Initial residual = 0.0168027, Final residual = 1.17277e-16, No Iterations 1
Phase-1 volume fraction = 0.80806  Min(alpha.water) = 0  Max(alpha.water) = 1
MULES: Correcting alpha.water
MULES: Correcting alpha.water
Phase-1 volume fraction = 0.808075  Min(alpha.water) = -5.63335e-18  Max(alpha.water) = 1
Point found at (0.19049 1 1)
on face 220
Point found at (0.19049 0 1)
on face 420
Point found at (0.19049 0 0)
on face 120
Point found at (0.19049 1 0)
on face 220
xproduct is (0 0 -0.0952451)
xproduct is (-0.5 0.0952451 0)
xproduct is (-0.5 0 0.0952451)
xproduct is (0 -0.0952451 0)
BEFORE PASS (1 0 0)

AFTER PASS (1 0 0)
AFTER PASS (1 0 0)
AFTER PASS (1 0 0)
Cell 18 intArea (1 0 0)
Cell 19 intArea (1 0 0)
Cell 20 intArea (1 0 0)
Cell 18
Temp at cell 385.116
Saturation Temperature 370.681
gradient at cell 18 is 82.4884
count at a value of 1
dint value of 0.175


Interface Area 1
Liquid Heat Xfer -0
Vapor Heat Xfer 3.15558
Calculated mass transfer 1.39627e-07


Interface Area 1
Liquid Heat Xfer -0
Vapor Heat Xfer 1.57779
Calculated mass transfer 6.98138e-08


Interface Area 1
Liquid Heat Xfer -0
Vapor Heat Xfer 1.57779
Calculated mass transfer 6.98139e-08


Interface Area 0
Liquid Heat Xfer -0
Vapor Heat Xfer 1.5778
Calculated mass transfer 0


Interface Area 0
Liquid Heat Xfer -0
Vapor Heat Xfer 1.5778
Calculated mass transfer 0


Interface Area 0
Liquid Heat Xfer -0
Vapor Heat Xfer 3.1556
Calculated mass transfer 0


DICPCG:  Solving for rhoSmear, Initial residual = 0.841121, Final residual = 9.58791e-17, No Iterations 1
heavyVolL=0 [0 0 0 0 0 0 0] 7.85496e-09
heavyVolV=0 [0 0 0 0 0 0 0] 9.42889e-08
Continuity Value: 2.79255e-07
Sharp Continuity: 2.79255e-07
Continuity2 Value: -2.79255e-07

smoothSolver:  Solving for T, Initial residual = 4.68503e-05, Final residual = 1.17876e-07, No Iterations 2
DICPCG:  Solving for p_rgh, Initial residual = 0.886723, Final residual = 4.3546e-14, No Iterations 1
DICPCG:  Solving for p_rgh, Initial residual = 0.101229, Final residual = 1.19343e-15, No Iterations 1
DICPCG:  Solving for p_rgh, Initial residual = 0.0876598, Final residual = 6.93652e-16, No Iterations 1
smoothSolver:  Solving for epsilon, Initial residual = 0.0404586, Final residual = 7.61671e-07, No Iterations 7
smoothSolver:  Solving for k, Initial residual = 0.0207069, Final residual = 9.90282e-07, No Iterations 10
ExecutionTime = 0.247077 s


Courant Number mean: 0.939969 max: 1.04154
Interface Courant Number mean: 0.0619848 max: 1.04065
deltaT = 0.00319788
Time = 0.0517009s

Point found at (0.19049 1 1)
on face 220
Point found at (0.19049 0 1)
on face 420
Point found at (0.19049 0 0)
on face 120
Point found at (0.19049 1 0)
on face 220
xproduct is (0 0 -0.0952451)
xproduct is (-0.5 0.0952451 0)
xproduct is (-0.5 0 0.0952451)
xproduct is (0 -0.0952451 0)
BEFORE PASS (1 0 0)

AFTER PASS (1 0 0)
AFTER PASS (1 0 0)
AFTER PASS (1 0 0)
smoothSolver:  Solving for alpha.water, Initial residual = 0.0161227, Final residual = 9.32747e-17, No Iterations 1
Phase-1 volume fraction = 0.798075  Min(alpha.water) = -2.81016e-18  Max(alpha.water) = 1
MULES: Correcting alpha.water
MULES: Correcting alpha.water
Phase-1 volume fraction = 0.798089  Min(alpha.water) = -2.81016e-18  Max(alpha.water) = 1
Point found at (0.200468 0 0)
on face 121
Point found at (0.200468 1 1)
on face 221
Point found at (0.200468 0 1)
on face 421
Point found at (0.200468 1 0)
on face 221
xproduct is (0 0 -0.100234)
xproduct is (-0.5 0.100234 0)
xproduct is (-0.5 0 0.100234)
xproduct is (0 -0.100234 0)
BEFORE PASS (1 0 0)

AFTER PASS (1 0 0)
AFTER PASS (1 0 0)
AFTER PASS (1 0 0)
Cell 19 intArea (1 0 0)
Cell 20 intArea (1 0 0)
Cell 21 intArea (1 0 0)
Cell 19
Temp at cell 385.116
Saturation Temperature 370.284
gradient at cell 19 is 80.1763
count at a value of 1
dint value of 0.185


Interface Area 1
Liquid Heat Xfer -0
Vapor Heat Xfer 3.06713
Calculated mass transfer 1.35714e-07


Interface Area 1
Liquid Heat Xfer -0
Vapor Heat Xfer 1.53357
Calculated mass transfer 6.7857e-08


Interface Area 1
Liquid Heat Xfer -0
Vapor Heat Xfer 1.53357
Calculated mass transfer 6.78571e-08


Interface Area 0
Liquid Heat Xfer -0
Vapor Heat Xfer 1.53357
Calculated mass transfer 0


Interface Area 0
Liquid Heat Xfer -0
Vapor Heat Xfer 1.53357
Calculated mass transfer 0


Interface Area 0
Liquid Heat Xfer -0
Vapor Heat Xfer 3.06715
Calculated mass transfer 0


DICPCG:  Solving for rhoSmear, Initial residual = 0.841121, Final residual = 1.02319e-16, No Iterations 1
heavyVolL=0 [0 0 0 0 0 0 0] 7.63478e-09
heavyVolV=0 [0 0 0 0 0 0 0] 9.16463e-08
Continuity Value: 2.71428e-07
Sharp Continuity: 2.71428e-07
Continuity2 Value: -2.71428e-07

smoothSolver:  Solving for T, Initial residual = 4.09469e-05, Final residual = 9.21042e-07, No Iterations 1
DICPCG:  Solving for p_rgh, Initial residual = 0.891758, Final residual = 2.68377e-14, No Iterations 1
DICPCG:  Solving for p_rgh, Initial residual = 0.102294, Final residual = 8.30272e-16, No Iterations 1
DICPCG:  Solving for p_rgh, Initial residual = 0.08855, Final residual = 6.03025e-16, No Iterations 1
smoothSolver:  Solving for epsilon, Initial residual = 0.0402664, Final residual = 3.82246e-07, No Iterations 7
smoothSolver:  Solving for k, Initial residual = 0.0212595, Final residual = 4.61392e-07, No Iterations 10
ExecutionTime = 0.261099 s


Courant Number mean: 0.929612 max: 1.03603
Interface Courant Number mean: 0.0616626 max: 1.03518
deltaT = 0.00308666
Time = 0.0547875s

Point found at (0.200468 0 0)
on face 121
Point found at (0.200468 1 1)
on face 221
Point found at (0.200468 0 1)
on face 421
Point found at (0.200468 1 0)
on face 221
xproduct is (0 0 -0.100234)
xproduct is (-0.5 0.100234 0)
xproduct is (-0.5 0 0.100234)
xproduct is (0 -0.100234 0)
BEFORE PASS (1 0 0)

AFTER PASS (1 0 0)
AFTER PASS (1 0 0)
AFTER PASS (1 0 0)
smoothSolver:  Solving for alpha.water, Initial residual = 0.0155142, Final residual = 8.74672e-17, No Iterations 1
Phase-1 volume fraction = 0.788097  Min(alpha.water) = -1.4598e-18  Max(alpha.water) = 1
MULES: Correcting alpha.water
MULES: Correcting alpha.water
Phase-1 volume fraction = 0.788118  Min(alpha.water) = -1.4598e-18  Max(alpha.water) = 1
Point found at (0.210434 0 0)
on face 122
Point found at (0.210434 1 1)
on face 222
Point found at (0.210434 0 1)
on face 422
Point found at (0.210434 1 0)
on face 222
xproduct is (0 0 -0.105217)
xproduct is (-0.5 0.105217 0)
xproduct is (-0.5 0 0.105217)
xproduct is (0 -0.105217 0)
BEFORE PASS (1 0 0)

AFTER PASS (1 0 0)
AFTER PASS (1 0 0)
AFTER PASS (1 0 0)
Cell 20 intArea (1 0 0)
Cell 21 intArea (1 0 0)
Cell 22 intArea (1 0 0)
Cell 20
Temp at cell 385.116
Saturation Temperature 369.934
gradient at cell 20 is 77.8557
count at a value of 1
dint value of 0.195


Interface Area 1
Liquid Heat Xfer -0
Vapor Heat Xfer 2.97835
Calculated mass transfer 1.31786e-07


Interface Area 1
Liquid Heat Xfer -0
Vapor Heat Xfer 1.48918
Calculated mass transfer 6.58929e-08


Interface Area 1
Liquid Heat Xfer -0
Vapor Heat Xfer 1.48918
Calculated mass transfer 6.5893e-08


Interface Area 0
Liquid Heat Xfer -0
Vapor Heat Xfer 1.48918
Calculated mass transfer 0


Interface Area 0
Liquid Heat Xfer -0
Vapor Heat Xfer 1.48918
Calculated mass transfer 0


Interface Area 0
Liquid Heat Xfer -0
Vapor Heat Xfer 2.97837
Calculated mass transfer 0


DICPCG:  Solving for rhoSmear, Initial residual = 0.841121, Final residual = 9.45934e-17, No Iterations 1
heavyVolL=0 [0 0 0 0 0 0 0] 7.41379e-09
heavyVolV=0 [0 0 0 0 0 0 0] 8.89938e-08
Continuity Value: 2.63571e-07
Sharp Continuity: 2.63571e-07
Continuity2 Value: -2.63571e-07

smoothSolver:  Solving for T, Initial residual = 3.63127e-05, Final residual = 7.52954e-07, No Iterations 1
DICPCG:  Solving for p_rgh, Initial residual = 0.897238, Final residual = 3.01277e-14, No Iterations 1
DICPCG:  Solving for p_rgh, Initial residual = 0.103751, Final residual = 9.41953e-16, No Iterations 1
DICPCG:  Solving for p_rgh, Initial residual = 0.0895489, Final residual = 4.58725e-16, No Iterations 1
smoothSolver:  Solving for epsilon, Initial residual = 0.0397472, Final residual = 7.80923e-07, No Iterations 6
smoothSolver:  Solving for k, Initial residual = 0.0220258, Final residual = 6.71414e-07, No Iterations 9
ExecutionTime = 0.275082 s


Courant Number mean: 0.920173 max: 1.03158
Interface Courant Number mean: 0.0614006 max: 1.03077
deltaT = 0.00299217
Time = 0.0577797s

Point found at (0.210434 0 0)
on face 122
Point found at (0.210434 1 1)
on face 222
Point found at (0.210434 0 1)
on face 422
Point found at (0.210434 1 0)
on face 222
xproduct is (0 0 -0.105217)
xproduct is (-0.5 0.105217 0)
xproduct is (-0.5 0 0.105217)
xproduct is (0 -0.105217 0)
BEFORE PASS (1 0 0)

AFTER PASS (1 0 0)
AFTER PASS (1 0 0)
AFTER PASS (1 0 0)
smoothSolver:  Solving for alpha.water, Initial residual = 0.0149647, Final residual = 6.26521e-17, No Iterations 1
Phase-1 volume fraction = 0.778143  Min(alpha.water) = -7.74096e-19  Max(alpha.water) = 1
MULES: Correcting alpha.water
MULES: Correcting alpha.water
Phase-1 volume fraction = 0.778179  Min(alpha.water) = -7.74096e-19  Max(alpha.water) = 1
Point found at (0.220368 0 0)
on face 123
Point found at (0.220368 1 1)
on face 223
Point found at (0.220368 0 1)
on face 423
Point found at (0.220368 1 0)
on face 223
xproduct is (0 0 -0.110184)
xproduct is (-0.5 0.110184 0)
xproduct is (-0.5 0 0.110184)
xproduct is (0 -0.110184 0)
BEFORE PASS (1 0 0)

AFTER PASS (1 0 0)
AFTER PASS (1 0 0)
AFTER PASS (1 0 0)
Cell 21 intArea (1 0 0)
Cell 22 intArea (1 0 0)
Cell 23 intArea (1 0 0)
Cell 21
Temp at cell 385.116
Saturation Temperature 369.624
gradient at cell 21 is 75.5743
count at a value of 1
dint value of 0.205


Interface Area 1
Liquid Heat Xfer -0
Vapor Heat Xfer 2.89108
Calculated mass transfer 1.27924e-07


Interface Area 1
Liquid Heat Xfer -0
Vapor Heat Xfer 1.44554
Calculated mass transfer 6.3962e-08


Interface Area 1
Liquid Heat Xfer -0
Vapor Heat Xfer 1.44554
Calculated mass transfer 6.39621e-08


Interface Area 0
Liquid Heat Xfer -0
Vapor Heat Xfer 1.44554
Calculated mass transfer 0


Interface Area 0
Liquid Heat Xfer -0
Vapor Heat Xfer 1.44555
Calculated mass transfer 0


Interface Area 0
Liquid Heat Xfer -0
Vapor Heat Xfer 2.89109
Calculated mass transfer 0


DICPCG:  Solving for rhoSmear, Initial residual = 0.841121, Final residual = 8.43877e-17, No Iterations 1
heavyVolL=0 [0 0 0 0 0 0 0] 7.19654e-09
heavyVolV=0 [0 0 0 0 0 0 0] 8.6386e-08
Continuity Value: 2.55848e-07
Sharp Continuity: 2.55848e-07
Continuity2 Value: -2.55848e-07

smoothSolver:  Solving for T, Initial residual = 3.25088e-05, Final residual = 6.238e-07, No Iterations 1
DICPCG:  Solving for p_rgh, Initial residual = 0.903919, Final residual = 2.82578e-14, No Iterations 1
DICPCG:  Solving for p_rgh, Initial residual = 0.105114, Final residual = 6.87945e-16, No Iterations 1
DICPCG:  Solving for p_rgh, Initial residual = 0.0904428, Final residual = 3.40168e-16, No Iterations 1
smoothSolver:  Solving for epsilon, Initial residual = 0.0387434, Final residual = 5.13076e-07, No Iterations 6
smoothSolver:  Solving for k, Initial residual = 0.0230423, Final residual = 3.43205e-07, No Iterations 9
ExecutionTime = 0.290114 s


Courant Number mean: 0.911542 max: 1.02792
Interface Courant Number mean: 0.0611868 max: 1.02714
deltaT = 0.0029109
Time = 0.0606906s

Point found at (0.220368 0 0)
on face 123
Point found at (0.220368 1 1)
on face 223
Point found at (0.220368 0 1)
on face 423
Point found at (0.220368 1 0)
on face 223
xproduct is (0 0 -0.110184)
xproduct is (-0.5 0.110184 0)
xproduct is (-0.5 0 0.110184)
xproduct is (0 -0.110184 0)
BEFORE PASS (1 0 0)

AFTER PASS (1 0 0)
AFTER PASS (1 0 0)
AFTER PASS (1 0 0)
smoothSolver:  Solving for alpha.water, Initial residual = 0.014481, Final residual = 7.254e-17, No Iterations 1
Phase-1 volume fraction = 0.76822  Min(alpha.water) = -5.62079e-19  Max(alpha.water) = 1
MULES: Correcting alpha.water
MULES: Correcting alpha.water
Phase-1 volume fraction = 0.768272  Min(alpha.water) = -4.8758e-18  Max(alpha.water) = 1
Point found at (0.230267 1 0)
on face 324
Point found at (0.230267 0 0)
on face 324
Point found at (0.230267 0 1)
on face 124
Point found at (0.230267 1 1)
on face 424
xproduct is (0 0 -0.115133)
xproduct is (-0.5 0.115133 0)
xproduct is (-0.5 0 0.115133)
xproduct is (0 -0.115133 0)
BEFORE PASS (1 0 0)

AFTER PASS (1 0 0)
AFTER PASS (1 0 0)
AFTER PASS (1 0 0)
Cell 22 intArea (1 0 0)
Cell 23 intArea (1 0 0)
Cell 24 intArea (1 0 0)
Cell 22
Temp at cell 385.117
Saturation Temperature 369.345
gradient at cell 22 is 73.3555
count at a value of 1
dint value of 0.215


Interface Area 1
Liquid Heat Xfer -0
Vapor Heat Xfer 2.8062
Calculated mass transfer 1.24168e-07


Interface Area 1
Liquid Heat Xfer -0
Vapor Heat Xfer 1.4031
Calculated mass transfer 6.20842e-08


Interface Area 1
Liquid Heat Xfer -0
Vapor Heat Xfer 1.4031
Calculated mass transfer 6.20843e-08


Interface Area 0
Liquid Heat Xfer -0
Vapor Heat Xfer 1.40311
Calculated mass transfer 0


Interface Area 0
Liquid Heat Xfer -0
Vapor Heat Xfer 1.40311
Calculated mass transfer 0


Interface Area 0
Liquid Heat Xfer -0
Vapor Heat Xfer 2.80622
Calculated mass transfer 0


DICPCG:  Solving for rhoSmear, Initial residual = 0.841121, Final residual = 2.29222e-16, No Iterations 1
heavyVolL=0 [0 0 0 0 0 0 0] 6.98526e-09
heavyVolV=0 [0 0 0 0 0 0 0] 8.38499e-08
Continuity Value: 2.48337e-07
Sharp Continuity: 2.48337e-07
Continuity2 Value: -2.48337e-07

smoothSolver:  Solving for T, Initial residual = 2.9361e-05, Final residual = 5.24408e-07, No Iterations 1
DICPCG:  Solving for p_rgh, Initial residual = 0.914278, Final residual = 2.07279e-14, No Iterations 1
DICPCG:  Solving for p_rgh, Initial residual = 0.106982, Final residual = 4.6114e-16, No Iterations 1
DICPCG:  Solving for p_rgh, Initial residual = 0.0916789, Final residual = 3.89814e-16, No Iterations 1
smoothSolver:  Solving for epsilon, Initial residual = 0.0375402, Final residual = 3.59957e-07, No Iterations 6
smoothSolver:  Solving for k, Initial residual = 0.0243309, Final residual = 6.31073e-07, No Iterations 8
ExecutionTime = 0.30398 s


Courant Number mean: 0.903474 max: 1.02487
Interface Courant Number mean: 0.0610114 max: 1.02413
deltaT = 0.00284028
Time = 0.0635309s

Point found at (0.230267 1 0)
on face 324
Point found at (0.230267 0 0)
on face 324
Point found at (0.230267 0 1)
on face 124
Point found at (0.230267 1 1)
on face 424
xproduct is (0 0 -0.115133)
xproduct is (-0.5 0.115133 0)
xproduct is (-0.5 0 0.115133)
xproduct is (0 -0.115133 0)
BEFORE PASS (1 0 0)

AFTER PASS (1 0 0)
AFTER PASS (1 0 0)
AFTER PASS (1 0 0)
smoothSolver:  Solving for alpha.water, Initial residual = 0.0140428, Final residual = 6.95562e-17, No Iterations 1
Phase-1 volume fraction = 0.758326  Min(alpha.water) = -2.56753e-18  Max(alpha.water) = 1
MULES: Correcting alpha.water
MULES: Correcting alpha.water
Phase-1 volume fraction = 0.758393  Min(alpha.water) = -2.56753e-18  Max(alpha.water) = 1
Point found at (0.240133 0 1)
on face 425
Point found at (0.240133 0 0)
on face 125
Point found at (0.240133 1 1)
on face 225
Point found at (0.240133 1 0)
on face 225
xproduct is (0 0 -0.120066)
xproduct is (-0.5 0.120066 0)
xproduct is (-0.5 0 0.120066)
xproduct is (0 -0.120066 0)
BEFORE PASS (1 0 0)

AFTER PASS (1 0 0)
AFTER PASS (1 0 0)
AFTER PASS (1 0 0)
Cell 23 intArea (1 0 0)
Cell 24 intArea (1 0 0)
Cell 25 intArea (1 0 0)
Cell 23
Temp at cell 385.117
Saturation Temperature 369.094
gradient at cell 23 is 71.2122
count at a value of 1
dint value of 0.225


Interface Area 1
Liquid Heat Xfer -0
Vapor Heat Xfer 2.72421
Calculated mass transfer 1.2054e-07


Interface Area 1
Liquid Heat Xfer -0
Vapor Heat Xfer 1.36211
Calculated mass transfer 6.02702e-08


Interface Area 1
Liquid Heat Xfer -0
Vapor Heat Xfer 1.36211
Calculated mass transfer 6.02702e-08


Interface Area 0
Liquid Heat Xfer -0
Vapor Heat Xfer 1.36211
Calculated mass transfer 0


Interface Area 0
Liquid Heat Xfer -0
Vapor Heat Xfer 1.36211
Calculated mass transfer 0


Interface Area 0
Liquid Heat Xfer -0
Vapor Heat Xfer 2.72422
Calculated mass transfer 0


DICPCG:  Solving for rhoSmear, Initial residual = 0.841121, Final residual = 9.83569e-17, No Iterations 1
heavyVolL=0 [0 0 0 0 0 0 0] 6.78116e-09
heavyVolV=0 [0 0 0 0 0 0 0] 8.14e-08
Continuity Value: 2.41081e-07
Sharp Continuity: 2.41081e-07
Continuity2 Value: -2.41081e-07

smoothSolver:  Solving for T, Initial residual = 2.671e-05, Final residual = 4.48071e-07, No Iterations 1
DICPCG:  Solving for p_rgh, Initial residual = 0.92576, Final residual = 2.0552e-14, No Iterations 1
DICPCG:  Solving for p_rgh, Initial residual = 0.109456, Final residual = 2.3777e-16, No Iterations 1
DICPCG:  Solving for p_rgh, Initial residual = 0.0934907, Final residual = 2.58919e-16, No Iterations 1
smoothSolver:  Solving for epsilon, Initial residual = 0.0361779, Final residual = 2.59635e-07, No Iterations 6
smoothSolver:  Solving for k, Initial residual = 0.0259135, Final residual = 3.41167e-07, No Iterations 8
ExecutionTime = 0.317883 s


Courant Number mean: 0.895899 max: 1.0223
Interface Courant Number mean: 0.060867 max: 1.02159
deltaT = 0.00277833
Time = 0.0663092s

Point found at (0.240133 0 1)
on face 425
Point found at (0.240133 0 0)
on face 125
Point found at (0.240133 1 1)
on face 225
Point found at (0.240133 1 0)
on face 225
xproduct is (0 0 -0.120066)
xproduct is (-0.5 0.120066 0)
xproduct is (-0.5 0 0.120066)
xproduct is (0 -0.120066 0)
BEFORE PASS (1 0 0)

AFTER PASS (1 0 0)
AFTER PASS (1 0 0)
AFTER PASS (1 0 0)
smoothSolver:  Solving for alpha.water, Initial residual = 0.0136476, Final residual = 6.71534e-17, No Iterations 1
Phase-1 volume fraction = 0.74846  Min(alpha.water) = -1.4409e-18  Max(alpha.water) = 1
MULES: Correcting alpha.water
MULES: Correcting alpha.water
Phase-1 volume fraction = 0.748539  Min(alpha.water) = -1.4409e-18  Max(alpha.water) = 1
Point found at (0.24997 0 1)
on face 425
Point found at (0.24997 0 0)
on face 125
Point found at (0.24997 1 0)
on face 325
Point found at (0.24997 1 1)
on face 225
xproduct is (0 0 -0.124985)
xproduct is (-0.5 0.124985 0)
xproduct is (-0.5 0 0.124985)
xproduct is (0 -0.124985 0)
BEFORE PASS (1 0 0)

AFTER PASS (1 0 0)
AFTER PASS (1 0 0)
AFTER PASS (1 0 0)
Cell 23 intArea (1 0 0)
Cell 24 intArea (1 0 0)
Cell 25 intArea (1 0 0)
Cell 24
Temp at cell 385.117
Saturation Temperature 368.867
gradient at cell 24 is 1085.57
count at a value of 1
dint value of 0.0149695


Interface Area 1
Liquid Heat Xfer -0
Vapor Heat Xfer 41.5283
Calculated mass transfer 1.83754e-06


Interface Area 1
Liquid Heat Xfer -0
Vapor Heat Xfer 20.7642
Calculated mass transfer 9.1877e-07


Interface Area 0
Liquid Heat Xfer -0
Vapor Heat Xfer 20.7642
Calculated mass transfer 0


Interface Area 0
Liquid Heat Xfer -0
Vapor Heat Xfer 20.7642
Calculated mass transfer 0


Interface Area 0
Liquid Heat Xfer -0
Vapor Heat Xfer 20.7643
Calculated mass transfer 0


Interface Area 0
Liquid Heat Xfer -0
Vapor Heat Xfer 41.5285
Calculated mass transfer 0


DICPCG:  Solving for rhoSmear, Initial residual = 0.821168, Final residual = 8.78382e-17, No Iterations 1
heavyVolL=0 [0 0 0 0 0 0 0] 6.575e-08
heavyVolV=0 [0 0 0 0 0 0 0] 1.04319e-06
Continuity Value: 2.75631e-06
Sharp Continuity: 2.75631e-06
Continuity2 Value: -2.75631e-06

smoothSolver:  Solving for T, Initial residual = 2.4458e-05, Final residual = 3.87766e-07, No Iterations 1
DICPCG:  Solving for p_rgh, Initial residual = 0.937107, Final residual = 1.66261e-14, No Iterations 1
DICPCG:  Solving for p_rgh, Initial residual = 0.113068, Final residual = 1.09157e-16, No Iterations 1
DICPCG:  Solving for p_rgh, Initial residual = 0.0961301, Final residual = 2.50354e-16, No Iterations 1
smoothSolver:  Solving for epsilon, Initial residual = 0.0346069, Final residual = 1.86222e-07, No Iterations 6
smoothSolver:  Solving for k, Initial residual = 0.0278252, Final residual = 7.78898e-07, No Iterations 7
ExecutionTime = 0.3319 s


Courant Number mean: 0.888715 max: 1.02011
Interface Courant Number mean: 0.0607481 max: 1.01944
deltaT = 0.00272356
Time = 0.0690328s

Point found at (0.24997 0 1)
on face 425
Point found at (0.24997 0 0)
on face 125
Point found at (0.24997 1 0)
on face 325
Point found at (0.24997 1 1)
on face 225
xproduct is (0 0 -0.124985)
xproduct is (-0.5 0.124985 0)
xproduct is (-0.5 0 0.124985)
xproduct is (0 -0.124985 0)
BEFORE PASS (1 0 0)

AFTER PASS (1 0 0)
AFTER PASS (1 0 0)
AFTER PASS (1 0 0)
smoothSolver:  Solving for alpha.water, Initial residual = 0.0132901, Final residual = 5.47577e-17, No Iterations 1
Phase-1 volume fraction = 0.738617  Min(alpha.water) = -8.64977e-19  Max(alpha.water) = 1
MULES: Correcting alpha.water
MULES: Correcting alpha.water
Phase-1 volume fraction = 0.738708  Min(alpha.water) = -8.64977e-19  Max(alpha.water) = 1
Point found at (0.259791 1 1)
on face 226
Point found at (0.259791 0 1)
on face 426
Point found at (0.259791 0 0)
on face 126
Point found at (0.259791 1 0)
on face 326
xproduct is (0 0 -0.129896)
xproduct is (-0.5 0.129896 0)
xproduct is (-0.5 0 0.129896)
xproduct is (0 -0.129896 0)
BEFORE PASS (1 0 0)

AFTER PASS (1 0 0)
AFTER PASS (1 0 0)
AFTER PASS (1 0 0)
Cell 24 intArea (1 0 0)
Cell 25 intArea (1 0 0)
Cell 26 intArea (1 0 0)
Cell 25
Temp at cell 385.117
Saturation Temperature 368.659
gradient at cell 25 is 1112.68
count at a value of 1
dint value of 0.0147913


Interface Area 1
Liquid Heat Xfer -0
Vapor Heat Xfer 42.5653
Calculated mass transfer 1.88342e-06


Interface Area 1
Liquid Heat Xfer -0
Vapor Heat Xfer 21.2827
Calculated mass transfer 9.41711e-07


Interface Area 0
Liquid Heat Xfer -0
Vapor Heat Xfer 21.2827
Calculated mass transfer 0


Interface Area 0
Liquid Heat Xfer -0
Vapor Heat Xfer 21.2827
Calculated mass transfer 0


Interface Area 0
Liquid Heat Xfer -0
Vapor Heat Xfer 21.2827
Calculated mass transfer 0


Interface Area 0
Liquid Heat Xfer -0
Vapor Heat Xfer 42.5655
Calculated mass transfer 0


DICPCG:  Solving for rhoSmear, Initial residual = 0.821168, Final residual = 9.40654e-17, No Iterations 1
heavyVolL=0 [0 0 0 0 0 0 0] 6.73917e-08
heavyVolV=0 [0 0 0 0 0 0 0] 1.06924e-06
Continuity Value: 2.82513e-06
Sharp Continuity: 2.82513e-06
Continuity2 Value: -2.82513e-06

smoothSolver:  Solving for T, Initial residual = 2.25279e-05, Final residual = 3.38678e-07, No Iterations 1
DICPCG:  Solving for p_rgh, Initial residual = 0.947542, Final residual = 1.95588e-14, No Iterations 1
DICPCG:  Solving for p_rgh, Initial residual = 0.117244, Final residual = 1.71754e-16, No Iterations 1
DICPCG:  Solving for p_rgh, Initial residual = 0.099173, Final residual = 2.6962e-16, No Iterations 1
smoothSolver:  Solving for epsilon, Initial residual = 0.0327492, Final residual = 7.80843e-07, No Iterations 5
smoothSolver:  Solving for k, Initial residual = 0.0300941, Final residual = 4.3526e-07, No Iterations 7
ExecutionTime = 0.345849 s


Courant Number mean: 0.881856 max: 1.01824
Interface Courant Number mean: 0.0606503 max: 1.0176
deltaT = 0.00267476
Time = 0.0717075s

Point found at (0.259791 1 1)
on face 226
Point found at (0.259791 0 1)
on face 426
Point found at (0.259791 0 0)
on face 126
Point found at (0.259791 1 0)
on face 326
xproduct is (0 0 -0.129896)
xproduct is (-0.5 0.129896 0)
xproduct is (-0.5 0 0.129896)
xproduct is (0 -0.129896 0)
BEFORE PASS (1 0 0)

AFTER PASS (1 0 0)
AFTER PASS (1 0 0)
AFTER PASS (1 0 0)
smoothSolver:  Solving for alpha.water, Initial residual = 0.0129658, Final residual = 6.77621e-17, No Iterations 1
Phase-1 volume fraction = 0.728795  Min(alpha.water) = -6.47963e-19  Max(alpha.water) = 1
MULES: Correcting alpha.water
MULES: Correcting alpha.water
Phase-1 volume fraction = 0.728896  Min(alpha.water) = -6.47963e-19  Max(alpha.water) = 1
Point found at (0.269593 0 1)
on face 427
Point found at (0.269593 0 0)
on face 127
Point found at (0.269593 1 0)
on face 327
Point found at (0.269593 1 1)
on face 227
xproduct is (0 0 -0.134797)
xproduct is (-0.5 0.134797 0)
xproduct is (-0.5 0 0.134797)
xproduct is (0 -0.134797 0)
BEFORE PASS (1 0 0)

AFTER PASS (1 0 0)
AFTER PASS (1 0 0)
AFTER PASS (1 0 0)
Cell 25 intArea (1 0 0)
Cell 26 intArea (1 0 0)
Cell 27 intArea (1 0 0)
Cell 26
Temp at cell 385.118
Saturation Temperature 368.47
gradient at cell 26 is 1140.78
count at a value of 1
dint value of 0.0145932


Interface Area 1
Liquid Heat Xfer -0
Vapor Heat Xfer 43.6402
Calculated mass transfer 1.93098e-06


Interface Area 1
Liquid Heat Xfer -0
Vapor Heat Xfer 21.8201
Calculated mass transfer 9.65493e-07


Interface Area 0
Liquid Heat Xfer -0
Vapor Heat Xfer 21.8202
Calculated mass transfer 0


Interface Area 0
Liquid Heat Xfer -0
Vapor Heat Xfer 21.8202
Calculated mass transfer 0


Interface Area 0
Liquid Heat Xfer -0
Vapor Heat Xfer 21.8202
Calculated mass transfer 0


Interface Area 0
Liquid Heat Xfer -0
Vapor Heat Xfer 43.6404
Calculated mass transfer 0


DICPCG:  Solving for rhoSmear, Initial residual = 0.821168, Final residual = 9.29555e-17, No Iterations 1
heavyVolL=0 [0 0 0 0 0 0 0] 6.90936e-08
heavyVolV=0 [0 0 0 0 0 0 0] 1.09624e-06
Continuity Value: 2.89648e-06
Sharp Continuity: 2.89648e-06
Continuity2 Value: -2.89648e-06

smoothSolver:  Solving for T, Initial residual = 2.08621e-05, Final residual = 2.97528e-07, No Iterations 1
DICPCG:  Solving for p_rgh, Initial residual = 0.956719, Final residual = 8.51413e-15, No Iterations 1
DICPCG:  Solving for p_rgh, Initial residual = 0.122018, Final residual = 4.24182e-16, No Iterations 1
DICPCG:  Solving for p_rgh, Initial residual = 0.102644, Final residual = 2.1054e-16, No Iterations 1
smoothSolver:  Solving for epsilon, Initial residual = 0.0308894, Final residual = 5.84652e-07, No Iterations 5
smoothSolver:  Solving for k, Initial residual = 0.0327725, Final residual = 2.33933e-07, No Iterations 7
ExecutionTime = 0.35991 s


Courant Number mean: 0.875263 max: 1.01663
Interface Courant Number mean: 0.06057 max: 1.01601
deltaT = 0.002631
Time = 0.0743385s

Point found at (0.269593 0 1)
on face 427
Point found at (0.269593 0 0)
on face 127
Point found at (0.269593 1 0)
on face 327
Point found at (0.269593 1 1)
on face 227
xproduct is (0 0 -0.134797)
xproduct is (-0.5 0.134797 0)
xproduct is (-0.5 0 0.134797)
xproduct is (0 -0.134797 0)
BEFORE PASS (1 0 0)

AFTER PASS (1 0 0)
AFTER PASS (1 0 0)
AFTER PASS (1 0 0)
smoothSolver:  Solving for alpha.water, Initial residual = 0.012671, Final residual = 5.01529e-17, No Iterations 1
Phase-1 volume fraction = 0.718991  Min(alpha.water) = -5.16856e-19  Max(alpha.water) = 1
MULES: Correcting alpha.water
MULES: Correcting alpha.water
Phase-1 volume fraction = 0.7191  Min(alpha.water) = -5.16856e-19  Max(alpha.water) = 1
Point found at (0.279379 0 0)
on face 128
Point found at (0.279379 1 0)
on face 328
Point found at (0.279379 1 1)
on face 228
Point found at (0.279379 0 1)
on face 428
xproduct is (0 -0.139689 0)
xproduct is (0 0 -0.139689)
xproduct is (-0.5 0.139689 0)
xproduct is (-0.5 0 0.139689)
BEFORE PASS (1 0 0)

AFTER PASS (1 0 0)
AFTER PASS (1 0 0)
AFTER PASS (1 0 0)
Cell 26 intArea (1 0 0)
Cell 27 intArea (1 0 0)
Cell 28 intArea (1 0 0)
Cell 27
Temp at cell 385.118
Saturation Temperature 368.296
gradient at cell 27 is 1169.91
count at a value of 1
dint value of 0.0143787


Interface Area 1
Liquid Heat Xfer -0
Vapor Heat Xfer 44.7546
Calculated mass transfer 1.98029e-06


Interface Area 1
Liquid Heat Xfer -0
Vapor Heat Xfer 22.3773
Calculated mass transfer 9.90147e-07


Interface Area 0
Liquid Heat Xfer -0
Vapor Heat Xfer 22.3773
Calculated mass transfer 0


Interface Area 0
Liquid Heat Xfer -0
Vapor Heat Xfer 22.3774
Calculated mass transfer 0


Interface Area 0
Liquid Heat Xfer -0
Vapor Heat Xfer 22.3774
Calculated mass transfer 0


Interface Area 0
Liquid Heat Xfer -0
Vapor Heat Xfer 44.7548
Calculated mass transfer 0


DICPCG:  Solving for rhoSmear, Initial residual = 0.821168, Final residual = 1.47728e-16, No Iterations 1
heavyVolL=0 [0 0 0 0 0 0 0] 7.0858e-08
heavyVolV=0 [0 0 0 0 0 0 0] 1.12424e-06
Continuity Value: 2.97044e-06
Sharp Continuity: 2.97044e-06
Continuity2 Value: -2.97044e-06

smoothSolver:  Solving for T, Initial residual = 1.94049e-05, Final residual = 2.62623e-07, No Iterations 1
DICPCG:  Solving for p_rgh, Initial residual = 0.964567, Final residual = 5.17276e-15, No Iterations 1
DICPCG:  Solving for p_rgh, Initial residual = 0.127687, Final residual = 4.62924e-16, No Iterations 1
DICPCG:  Solving for p_rgh, Initial residual = 0.106676, Final residual = 2.10745e-16, No Iterations 1
smoothSolver:  Solving for epsilon, Initial residual = 0.0312772, Final residual = 4.1833e-07, No Iterations 5
smoothSolver:  Solving for k, Initial residual = 0.0359039, Final residual = 7.11704e-07, No Iterations 6
ExecutionTime = 0.373967 s


Courant Number mean: 0.868885 max: 1.01523
Interface Courant Number mean: 0.0605045 max: 1.01463
deltaT = 0.00259152
Time = 0.07693s

Point found at (0.279379 0 0)
on face 128
Point found at (0.279379 1 0)
on face 328
Point found at (0.279379 1 1)
on face 228
Point found at (0.279379 0 1)
on face 428
xproduct is (0 -0.139689 0)
xproduct is (0 0 -0.139689)
xproduct is (-0.5 0.139689 0)
xproduct is (-0.5 0 0.139689)
BEFORE PASS (1 0 0)

AFTER PASS (1 0 0)
AFTER PASS (1 0 0)
AFTER PASS (1 0 0)
smoothSolver:  Solving for alpha.water, Initial residual = 0.0124025, Final residual = 4.01459e-17, No Iterations 1
Phase-1 volume fraction = 0.709202  Min(alpha.water) = -4.40108e-19  Max(alpha.water) = 1
MULES: Correcting alpha.water
MULES: Correcting alpha.water
Phase-1 volume fraction = 0.709318  Min(alpha.water) = -4.40108e-19  Max(alpha.water) = 1
Point found at (0.289151 0 0)
on face 129
Point found at (0.289151 1 0)
on face 329
Point found at (0.289151 1 1)
on face 229
Point found at (0.289151 0 1)
on face 429
xproduct is (0 -0.144575 0)
xproduct is (0 0 -0.144575)
xproduct is (-0.5 0.144575 0)
xproduct is (-0.5 0 0.144575)
BEFORE PASS (1 0 0)

AFTER PASS (1 0 0)
AFTER PASS (1 0 0)
AFTER PASS (1 0 0)
Cell 27 intArea (1 0 0)
Cell 28 intArea (1 0 0)
Cell 29 intArea (1 0 0)
Cell 28
Temp at cell 385.118
Saturation Temperature 368.136
gradient at cell 28 is 1200.07
count at a value of 1
dint value of 0.014151


Interface Area 1
Liquid Heat Xfer -0
Vapor Heat Xfer 45.9083
Calculated mass transfer 2.03134e-06


Interface Area 1
Liquid Heat Xfer -0
Vapor Heat Xfer 22.9542
Calculated mass transfer 1.01567e-06


Interface Area 0
Liquid Heat Xfer -0
Vapor Heat Xfer 22.9542
Calculated mass transfer 0


Interface Area 0
Liquid Heat Xfer -0
Vapor Heat Xfer 22.9542
Calculated mass transfer 0


Interface Area 0
Liquid Heat Xfer -0
Vapor Heat Xfer 22.9542
Calculated mass transfer 0


Interface Area 0
Liquid Heat Xfer -0
Vapor Heat Xfer 45.9085
Calculated mass transfer 0


DICPCG:  Solving for rhoSmear, Initial residual = 0.821168, Final residual = 2.34137e-16, No Iterations 1
heavyVolL=0 [0 0 0 0 0 0 0] 7.26845e-08
heavyVolV=0 [0 0 0 0 0 0 0] 1.15322e-06
Continuity Value: 3.04701e-06
Sharp Continuity: 3.04701e-06
Continuity2 Value: -3.04701e-06

smoothSolver:  Solving for T, Initial residual = 1.81177e-05, Final residual = 2.32649e-07, No Iterations 1
DICPCG:  Solving for p_rgh, Initial residual = 0.971188, Final residual = 4.56883e-15, No Iterations 1
DICPCG:  Solving for p_rgh, Initial residual = 0.134955, Final residual = 6.64621e-16, No Iterations 1
DICPCG:  Solving for p_rgh, Initial residual = 0.111481, Final residual = 1.20192e-16, No Iterations 1
smoothSolver:  Solving for epsilon, Initial residual = 0.0317946, Final residual = 2.83793e-07, No Iterations 5
smoothSolver:  Solving for k, Initial residual = 0.0395204, Final residual = 3.90078e-07, No Iterations 6
ExecutionTime = 0.388829 s


Courant Number mean: 0.862683 max: 1.01401
Interface Courant Number mean: 0.0604511 max: 1.01342
deltaT = 0.00255572
Time = 0.0794857s

Point found at (0.289151 0 0)
on face 129
Point found at (0.289151 1 0)
on face 329
Point found at (0.289151 1 1)
on face 229
Point found at (0.289151 0 1)
on face 429
xproduct is (0 -0.144575 0)
xproduct is (0 0 -0.144575)
xproduct is (-0.5 0.144575 0)
xproduct is (-0.5 0 0.144575)
BEFORE PASS (1 0 0)

AFTER PASS (1 0 0)
AFTER PASS (1 0 0)
AFTER PASS (1 0 0)
smoothSolver:  Solving for alpha.water, Initial residual = 0.0121577, Final residual = 5.05382e-17, No Iterations 1
Phase-1 volume fraction = 0.699425  Min(alpha.water) = -3.74286e-19  Max(alpha.water) = 1
MULES: Correcting alpha.water
MULES: Correcting alpha.water
Phase-1 volume fraction = 0.699546  Min(alpha.water) = -3.74286e-19  Max(alpha.water) = 1
Point found at (0.298913 0 0)
on face 130
Point found at (0.298913 1 0)
on face 330
Point found at (0.298913 1 1)
on face 230
Point found at (0.298913 0 1)
on face 430
xproduct is (0 -0.149457 0)
xproduct is (0 0 -0.149457)
xproduct is (-0.5 0.149457 0)
xproduct is (-0.5 0 0.149457)
BEFORE PASS (1 0 0)

AFTER PASS (1 0 0)
AFTER PASS (1 0 0)
AFTER PASS (1 0 0)
Cell 28 intArea (1 0 0)
Cell 29 intArea (1 0 0)
Cell 30 intArea (1 0 0)
Cell 29
Temp at cell 385.119
Saturation Temperature 367.989
gradient at cell 29 is 1231.21
count at a value of 1
dint value of 0.0139133


Interface Area 1
Liquid Heat Xfer -0
Vapor Heat Xfer 47.0998
Calculated mass transfer 2.08406e-06


Interface Area 1
Liquid Heat Xfer -0
Vapor Heat Xfer 23.5499
Calculated mass transfer 1.04203e-06


Interface Area 0
Liquid Heat Xfer -0
Vapor Heat Xfer 23.55
Calculated mass transfer 0


Interface Area 0
Liquid Heat Xfer -0
Vapor Heat Xfer 23.55
Calculated mass transfer 0


Interface Area 0
Liquid Heat Xfer -0
Vapor Heat Xfer 23.55
Calculated mass transfer 0


Interface Area 0
Liquid Heat Xfer -0
Vapor Heat Xfer 47.1
Calculated mass transfer 0


DICPCG:  Solving for rhoSmear, Initial residual = 0.821168, Final residual = 1.42132e-16, No Iterations 1
heavyVolL=0 [0 0 0 0 0 0 0] 7.45711e-08
heavyVolV=0 [0 0 0 0 0 0 0] 1.18315e-06
Continuity Value: 3.1261e-06
Sharp Continuity: 3.1261e-06
Continuity2 Value: -3.1261e-06

smoothSolver:  Solving for T, Initial residual = 1.69756e-05, Final residual = 2.06685e-07, No Iterations 1
DICPCG:  Solving for p_rgh, Initial residual = 0.976796, Final residual = 4.84115e-15, No Iterations 1
DICPCG:  Solving for p_rgh, Initial residual = 0.144882, Final residual = 7.38206e-16, No Iterations 1
DICPCG:  Solving for p_rgh, Initial residual = 0.118403, Final residual = 1.16267e-16, No Iterations 1
smoothSolver:  Solving for epsilon, Initial residual = 0.0323403, Final residual = 1.81632e-07, No Iterations 5
smoothSolver:  Solving for k, Initial residual = 0.0436474, Final residual = 2.03253e-07, No Iterations 6
ExecutionTime = 0.402709 s


Courant Number mean: 0.856621 max: 1.01293
Interface Courant Number mean: 0.0604078 max: 1.01236
deltaT = 0.0025231
Time = 0.0820089s

Point found at (0.298913 0 0)
on face 130
Point found at (0.298913 1 0)
on face 330
Point found at (0.298913 1 1)
on face 230
Point found at (0.298913 0 1)
on face 430
xproduct is (0 -0.149457 0)
xproduct is (0 0 -0.149457)
xproduct is (-0.5 0.149457 0)
xproduct is (-0.5 0 0.149457)
BEFORE PASS (1 0 0)

AFTER PASS (1 0 0)
AFTER PASS (1 0 0)
AFTER PASS (1 0 0)
smoothSolver:  Solving for alpha.water, Initial residual = 0.0119341, Final residual = 4.44626e-17, No Iterations 1
Phase-1 volume fraction = 0.689657  Min(alpha.water) = -3.36792e-19  Max(alpha.water) = 1
MULES: Correcting alpha.water
MULES: Correcting alpha.water
Phase-1 volume fraction = 0.689781  Min(alpha.water) = -3.36792e-19  Max(alpha.water) = 1
Point found at (0.308669 0 0)
on face 131
Point found at (0.308669 1 0)
on face 331
Point found at (0.308669 1 1)
on face 231
Point found at (0.308669 0 1)
on face 431
xproduct is (0 -0.154334 0)
xproduct is (0 0 -0.154334)
xproduct is (-0.5 0.154334 0)
xproduct is (-0.5 0 0.154334)
BEFORE PASS (1 0 0)

AFTER PASS (1 0 0)
AFTER PASS (1 0 0)
AFTER PASS (1 0 0)
Cell 29 intArea (1 0 0)
Cell 30 intArea (1 0 0)
Cell 31 intArea (1 0 0)
Cell 30
Temp at cell 385.119
Saturation Temperature 367.852
gradient at cell 30 is 1263.29
count at a value of 1
dint value of 0.0136688


Interface Area 1
Liquid Heat Xfer -0
Vapor Heat Xfer 48.3267
Calculated mass transfer 2.13835e-06


Interface Area 1
Liquid Heat Xfer -0
Vapor Heat Xfer 24.1634
Calculated mass transfer 1.06918e-06


Interface Area 0
Liquid Heat Xfer -0
Vapor Heat Xfer 24.1634
Calculated mass transfer 0


Interface Area 0
Liquid Heat Xfer -0
Vapor Heat Xfer 24.1634
Calculated mass transfer 0


Interface Area 0
Liquid Heat Xfer -0
Vapor Heat Xfer 24.1634
Calculated mass transfer 0


Interface Area 0
Liquid Heat Xfer -0
Vapor Heat Xfer 48.3269
Calculated mass transfer 0


DICPCG:  Solving for rhoSmear, Initial residual = 0.821168, Final residual = 1.43081e-16, No Iterations 1
heavyVolL=0 [0 0 0 0 0 0 0] 7.65136e-08
heavyVolV=0 [0 0 0 0 0 0 0] 1.21397e-06
Continuity Value: 3.20753e-06
Sharp Continuity: 3.20753e-06
Continuity2 Value: -3.20753e-06

smoothSolver:  Solving for T, Initial residual = 1.59515e-05, Final residual = 1.84272e-07, No Iterations 1
DICPCG:  Solving for p_rgh, Initial residual = 0.981512, Final residual = 3.49897e-15, No Iterations 1
DICPCG:  Solving for p_rgh, Initial residual = 0.157415, Final residual = 1.36298e-15, No Iterations 1
DICPCG:  Solving for p_rgh, Initial residual = 0.127, Final residual = 7.99905e-17, No Iterations 1
smoothSolver:  Solving for epsilon, Initial residual = 0.0338242, Final residual = 1.09277e-07, No Iterations 5
[...]
ExecutionTime = 1.43114 s


Courant Number mean: 0.36592 max: 1.03005
Interface Courant Number mean: 0.0337517 max: 1.03005
deltaT = 0.00155974
Time = 0.234164s

Point found at (0.970265 1 0)
on face 398
Point found at (0.970265 0 0)
on face 198
Point found at (0.998384 0 1)
on face 500
Point found at (0.998384 0 0)
on face 200
Point found at (0.998384 1 1)
on face 300
Point found at (0.998384 1 0)
on face 300
Point found at (0.970265 0 1)
on face 498
Point found at (0.970265 1 1)
on face 498
xproduct is (0 -0.485133 0)
xproduct is (0 -0.499192 0)
xproduct is (-0.5 0.485133 0)
xproduct is (-0.5 0.499192 0)
xproduct is (0 0 -0.485133)
xproduct is (0 0 -0.499192)
xproduct is (-0.5 0 0.485133)
xproduct is (-0.5 0 0.499192)
BEFORE PASS (1 0 0)

BEFORE PASS (-1 0.998384 0.998384)

AFTER PASS (1 0 0)
AFTER PASS (1 0 0)
AFTER PASS (0 0.499192 0.499192)
AFTER PASS (-1 0.998384 0.998384)
smoothSolver:  Solving for alpha.water, Initial residual = 0.0668457, Final residual = 1.63952e-17, No Iterations 1
Phase-1 volume fraction = 0.015767  Min(alpha.water) = -1.34296e-18  Max(alpha.water) = 0.482208
MULES: Correcting alpha.water
MULES: Correcting alpha.water
Phase-1 volume fraction = 0.0157794  Min(alpha.water) = -1.34296e-18  Max(alpha.water) = 0.482208
Cell 96
Temp at cell 385.107
Saturation Temperature 366.045
gradient at cell 96 is 19.9609
count at a value of 1
dint value of 0.955


Interface Area 0
Liquid Heat Xfer -0
Vapor Heat Xfer 0.7636
Calculated mass transfer 0


Interface Area 0
Liquid Heat Xfer -0
Vapor Heat Xfer 0.3818
Calculated mass transfer 0


Interface Area 0
Liquid Heat Xfer -0
Vapor Heat Xfer 0.3818
Calculated mass transfer 0


Interface Area 0
Liquid Heat Xfer -0
Vapor Heat Xfer 0.763502
Calculated mass transfer 0


DICPCG:  Solving for rhoSmear, Initial residual = 0, Final residual = 0, No Iterations 0
heavyVolL=0 [0 0 0 0 0 0 0] 0
heavyVolV=0 [0 0 0 0 0 0 0] 0
Continuity Value: 0
Sharp Continuity: 0
Continuity2 Value: 0

smoothSolver:  Solving for T, Initial residual = 0.000142315, Final residual = 5.62262e-08, No Iterations 1
DICPCG:  Solving for p_rgh, Initial residual = 0.380506, Final residual = 3.12079e-16, No Iterations 1
DICPCG:  Solving for p_rgh, Initial residual = 0.0040714, Final residual = 4.77347e-16, No Iterations 1
DICPCG:  Solving for p_rgh, Initial residual = 0.0040725, Final residual = 4.95472e-16, No Iterations 1
smoothSolver:  Solving for epsilon, Initial residual = 0.154214, Final residual = 4.58199e-09, No Iterations 2
smoothSolver:  Solving for k, Initial residual = 0.0277357, Final residual = 3.30981e-07, No Iterations 1
ExecutionTime = 1.44432 s


Courant Number mean: 0.353531 max: 1.03936
Interface Courant Number mean: 0.0332706 max: 1.03936
deltaT = 0.00150068
Time = 0.235664s

smoothSolver:  Solving for alpha.water, Initial residual = 0.0749668, Final residual = 1.53403e-17, No Iterations 1
Phase-1 volume fraction = 0.0117469  Min(alpha.water) = -1.3179e-18  Max(alpha.water) = 0.390955
MULES: Correcting alpha.water
MULES: Correcting alpha.water
Phase-1 volume fraction = 0.0117725  Min(alpha.water) = -1.3179e-18  Max(alpha.water) = 0.390955
Cell 96
Temp at cell 372.458
Saturation Temperature 366.045
gradient at cell 96 is 6.71558
count at a value of 1
dint value of 0.955


Interface Area 0
Liquid Heat Xfer -0
Vapor Heat Xfer 0.256903
Calculated mass transfer 0


Interface Area 0
Liquid Heat Xfer -0
Vapor Heat Xfer 0.128451
Calculated mass transfer 0


Interface Area 0
Liquid Heat Xfer -0
Vapor Heat Xfer 0.128451
Calculated mass transfer 0


Interface Area 0
Liquid Heat Xfer -0
Vapor Heat Xfer 0.256861
Calculated mass transfer 0


DICPCG:  Solving for rhoSmear, Initial residual = 0, Final residual = 0, No Iterations 0
heavyVolL=0 [0 0 0 0 0 0 0] 0
heavyVolV=0 [0 0 0 0 0 0 0] 0
Continuity Value: 0
Sharp Continuity: 0
Continuity2 Value: 0

smoothSolver:  Solving for T, Initial residual = 0.000214005, Final residual = 6.36023e-08, No Iterations 1
DICPCG:  Solving for p_rgh, Initial residual = 0.600406, Final residual = 8.6913e-16, No Iterations 1
DICPCG:  Solving for p_rgh, Initial residual = 0.0177558, Final residual = 2.07133e-15, No Iterations 1
DICPCG:  Solving for p_rgh, Initial residual = 0.0177673, Final residual = 2.03711e-15, No Iterations 1
smoothSolver:  Solving for epsilon, Initial residual = 0.973878, Final residual = 4.31363e-09, No Iterations 1
smoothSolver:  Solving for k, Initial residual = 0.0204476, Final residual = 2.34336e-07, No Iterations 1
ExecutionTime = 1.45731 s


Courant Number mean: 0.334227 max: 1.05154
Interface Courant Number mean: 0.0327856 max: 1.05154
deltaT = 0.00142712
Time = 0.237092s

smoothSolver:  Solving for alpha.water, Initial residual = 0.0831563, Final residual = 1.85964e-17, No Iterations 1
Phase-1 volume fraction = 0.00852609  Min(alpha.water) = -1.28922e-18  Max(alpha.water) = 0.306869
MULES: Correcting alpha.water
MULES: Correcting alpha.water
Phase-1 volume fraction = 0.00826347  Min(alpha.water) = -1.28922e-18  Max(alpha.water) = 0.306869
Cell 97
Temp at cell 385.11
Saturation Temperature 366.045
gradient at cell 97 is 19.7572
count at a value of 1
dint value of 0.965


Interface Area 0
Liquid Heat Xfer -0
Vapor Heat Xfer 0.755806
Calculated mass transfer 0


Interface Area 0
Liquid Heat Xfer -0
Vapor Heat Xfer 0.377903
Calculated mass transfer 0


Interface Area 0
Liquid Heat Xfer -0
Vapor Heat Xfer 0.755649
Calculated mass transfer 0


DICPCG:  Solving for rhoSmear, Initial residual = 0, Final residual = 0, No Iterations 0
heavyVolL=0 [0 0 0 0 0 0 0] 0
heavyVolV=0 [0 0 0 0 0 0 0] 0
Continuity Value: 0
Sharp Continuity: 0
Continuity2 Value: 0

smoothSolver:  Solving for T, Initial residual = 0.000210148, Final residual = 7.23061e-08, No Iterations 1
DICPCG:  Solving for p_rgh, Initial residual = 0.961608, Final residual = 4.03632e-15, No Iterations 1
DICPCG:  Solving for p_rgh, Initial residual = 0.475462, Final residual = 5.05279e-14, No Iterations 1
DICPCG:  Solving for p_rgh, Initial residual = 0.47606, Final residual = 4.63204e-14, No Iterations 1
smoothSolver:  Solving for epsilon, Initial residual = 0.119788, Final residual = 1.96377e-07, No Iterations 1
smoothSolver:  Solving for k, Initial residual = 0.0152149, Final residual = 1.99407e-07, No Iterations 1
ExecutionTime = 1.47021 s


Courant Number mean: 0.307538 max: 1.02671
Interface Courant Number mean: 0.0247074 max: 1.02671
deltaT = 0.00138999
Time = 0.238482s

smoothSolver:  Solving for alpha.water, Initial residual = 0.102175, Final residual = 8.70884e-18, No Iterations 1
Phase-1 volume fraction = 0.00566336  Min(alpha.water) = -1.26969e-18  Max(alpha.water) = 0.219302
MULES: Correcting alpha.water
MULES: Correcting alpha.water
Phase-1 volume fraction = 0.00565802  Min(alpha.water) = -1.26969e-18  Max(alpha.water) = 0.219302
Cell 97
Temp at cell 385.079
Saturation Temperature 366.045
gradient at cell 97 is 19.7247
count at a value of 1
dint value of 0.965


Interface Area 0
Liquid Heat Xfer -0
Vapor Heat Xfer 0.754562
Calculated mass transfer 0


Interface Area 0
Liquid Heat Xfer -0
Vapor Heat Xfer 0.377282
Calculated mass transfer 0


Interface Area 0
Liquid Heat Xfer -0
Vapor Heat Xfer 0.75438
Calculated mass transfer 0


DICPCG:  Solving for rhoSmear, Initial residual = 0, Final residual = 0, No Iterations 0
heavyVolL=0 [0 0 0 0 0 0 0] 0
heavyVolV=0 [0 0 0 0 0 0 0] 0
Continuity Value: 0
Sharp Continuity: 0
Continuity2 Value: 0

smoothSolver:  Solving for T, Initial residual = 0.000609322, Final residual = 1.01243e-07, No Iterations 1
DICPCG:  Solving for p_rgh, Initial residual = 0.286856, Final residual = 6.41119e-16, No Iterations 1
DICPCG:  Solving for p_rgh, Initial residual = 0.00851609, Final residual = 8.84583e-16, No Iterations 1
DICPCG:  Solving for p_rgh, Initial residual = 0.00851533, Final residual = 9.09081e-16, No Iterations 1
smoothSolver:  Solving for epsilon, Initial residual = 0.189061, Final residual = 4.4372e-09, No Iterations 2
smoothSolver:  Solving for k, Initial residual = 0.0125869, Final residual = 1.79063e-07, No Iterations 1
ExecutionTime = 1.4842 s


Courant Number mean: 0.346892 max: 1.12821
Interface Courant Number mean: 0.0268913 max: 1.12821
deltaT = 0.00123203
Time = 0.239714s

smoothSolver:  Solving for alpha.water, Initial residual = 0.10761, Final residual = 1.68408e-17, No Iterations 1
Phase-1 volume fraction = 0.00380635  Min(alpha.water) = -1.24168e-18  Max(alpha.water) = 0.153838
MULES: Correcting alpha.water
MULES: Correcting alpha.water
Phase-1 volume fraction = 0.00380222  Min(alpha.water) = -1.24168e-18  Max(alpha.water) = 0.153838
Cell 97
Temp at cell 365.808
Saturation Temperature 366.045
gradient at cell 97 is 0.245348
count at a value of 1
dint value of 0.965


Interface Area 0
Liquid Heat Xfer -0
Vapor Heat Xfer 0.00938571
Calculated mass transfer 0


Interface Area 0
Liquid Heat Xfer -0
Vapor Heat Xfer 0.00469286
Calculated mass transfer 0


Interface Area 0
Liquid Heat Xfer -0
Vapor Heat Xfer 0.00938239
Calculated mass transfer 0


DICPCG:  Solving for rhoSmear, Initial residual = 0, Final residual = 0, No Iterations 0
heavyVolL=0 [0 0 0 0 0 0 0] 0
heavyVolV=0 [0 0 0 0 0 0 0] 0
Continuity Value: 0
Sharp Continuity: 0
Continuity2 Value: 0

smoothSolver:  Solving for T, Initial residual = 0.000956292, Final residual = 1.3359e-07, No Iterations 1
DICPCG:  Solving for p_rgh, Initial residual = 0.282115, Final residual = 1.20925e-15, No Iterations 1
DICPCG:  Solving for p_rgh, Initial residual = 0.0206094, Final residual = 1.70158e-15, No Iterations 1
DICPCG:  Solving for p_rgh, Initial residual = 0.0206015, Final residual = 1.44168e-15, No Iterations 1
smoothSolver:  Solving for epsilon, Initial residual = 0.965228, Final residual = 5.4458e-08, No Iterations 1
smoothSolver:  Solving for k, Initial residual = 0.00843078, Final residual = 1.98339e-07, No Iterations 1
ExecutionTime = 1.49703 s


Courant Number mean: 0.311565 max: 1.13201
Interface Courant Number mean: 0.026291 max: 1.13201
deltaT = 0.00108836
Time = 0.240802s

smoothSolver:  Solving for alpha.water, Initial residual = 0.112967, Final residual = 1.11328e-17, No Iterations 1
Phase-1 volume fraction = 0.00251911  Min(alpha.water) = -1.22178e-18  Max(alpha.water) = 0.105398
MULES: Correcting alpha.water
MULES: Correcting alpha.water
Phase-1 volume fraction = 0.0025151  Min(alpha.water) = -1.22178e-18  Max(alpha.water) = 0.105398
Cell 97
Temp at cell 353.256
Saturation Temperature 366.045
gradient at cell 97 is 13.2519
count at a value of 1
dint value of 0.965


Interface Area 0
Liquid Heat Xfer -0
Vapor Heat Xfer 0.506945
Calculated mass transfer 0


Interface Area 0
Liquid Heat Xfer -0
Vapor Heat Xfer 0.253473
Calculated mass transfer 0


Interface Area 0
Liquid Heat Xfer -0
Vapor Heat Xfer 0.50668
Calculated mass transfer 0


DICPCG:  Solving for rhoSmear, Initial residual = 0, Final residual = 0, No Iterations 0
heavyVolL=0 [0 0 0 0 0 0 0] 0
heavyVolV=0 [0 0 0 0 0 0 0] 0
Continuity Value: 0
Sharp Continuity: 0
Continuity2 Value: 0

smoothSolver:  Solving for T, Initial residual = 0.00151704, Final residual = 1.42157e-07, No Iterations 1
DICPCG:  Solving for p_rgh, Initial residual = 0.300872, Final residual = 1.99397e-15, No Iterations 1
DICPCG:  Solving for p_rgh, Initial residual = 0.0467139, Final residual = 2.34643e-15, No Iterations 1
DICPCG:  Solving for p_rgh, Initial residual = 0.0466978, Final residual = 2.20309e-15, No Iterations 1
smoothSolver:  Solving for epsilon, Initial residual = 0.0665366, Final residual = 5.14137e-07, No Iterations 1
smoothSolver:  Solving for k, Initial residual = 0.00538388, Final residual = 2.03145e-07, No Iterations 1
ExecutionTime = 1.50993 s


Courant Number mean: 0.287571 max: 1.14877
Interface Courant Number mean: 0.0260519 max: 1.14877
deltaT = 0.000947412
Time = 0.241749s

smoothSolver:  Solving for alpha.water, Initial residual = 0.118082, Final residual = 2.17924e-17, No Iterations 1
Phase-1 volume fraction = 0.00164341  Min(alpha.water) = -1.20104e-18  Max(alpha.water) = 0.0705618
MULES: Correcting alpha.water
MULES: Correcting alpha.water
Phase-1 volume fraction = 0.001641  Min(alpha.water) = -1.20104e-18  Max(alpha.water) = 0.0705618
Cell 97
Temp at cell 341.855
Saturation Temperature 366.045
gradient at cell 97 is 25.0665
count at a value of 1
dint value of 0.965


Interface Area 0
Liquid Heat Xfer -0
Vapor Heat Xfer 0.958904
Calculated mass transfer 0


Interface Area 0
Liquid Heat Xfer -0
Vapor Heat Xfer 0.479455
Calculated mass transfer 0


Interface Area 0
Liquid Heat Xfer -0
Vapor Heat Xfer 0.958149
Calculated mass transfer 0


DICPCG:  Solving for rhoSmear, Initial residual = 0, Final residual = 0, No Iterations 0
heavyVolL=0 [0 0 0 0 0 0 0] 0
heavyVolV=0 [0 0 0 0 0 0 0] 0
Continuity Value: 0
Sharp Continuity: 0
Continuity2 Value: 0

smoothSolver:  Solving for T, Initial residual = 0.00244955, Final residual = 1.57805e-07, No Iterations 1
DICPCG:  Solving for p_rgh, Initial residual = 0.327521, Final residual = 2.3893e-15, No Iterations 1
DICPCG:  Solving for p_rgh, Initial residual = 0.10901, Final residual = 3.39743e-15, No Iterations 1
DICPCG:  Solving for p_rgh, Initial residual = 0.108976, Final residual = 3.35993e-15, No Iterations 1
smoothSolver:  Solving for epsilon, Initial residual = 0.152249, Final residual = 6.42554e-07, No Iterations 1
smoothSolver:  Solving for k, Initial residual = 0.00302891, Final residual = 2.0415e-07, No Iterations 1
ExecutionTime = 1.52274 s


Courant Number mean: 0.264502 max: 1.16648
Interface Courant Number mean: 0.0259594 max: 1.16648
deltaT = 0.000812196
Time = 0.242562s

smoothSolver:  Solving for alpha.water, Initial residual = 0.12211, Final residual = 8.32968e-18, No Iterations 1
Phase-1 volume fraction = 0.00106071  Min(alpha.water) = -1.18007e-18  Max(alpha.water) = 0.0464063
MULES: Correcting alpha.water
MULES: Correcting alpha.water
Phase-1 volume fraction = 0.00105932  Min(alpha.water) = -1.18007e-18  Max(alpha.water) = 0.0464063
Cell 97
Temp at cell 333.297
Saturation Temperature 366.045
gradient at cell 97 is 33.9352
count at a value of 1
dint value of 0.965


Interface Area 0
Liquid Heat Xfer -0
Vapor Heat Xfer 1.29815
Calculated mass transfer 0


Interface Area 0
Liquid Heat Xfer -0
Vapor Heat Xfer 0.649085
Calculated mass transfer 0


Interface Area 0
Liquid Heat Xfer -0
Vapor Heat Xfer 1.29659
Calculated mass transfer 0


DICPCG:  Solving for rhoSmear, Initial residual = 0, Final residual = 0, No Iterations 0
heavyVolL=0 [0 0 0 0 0 0 0] 0
heavyVolV=0 [0 0 0 0 0 0 0] 0
Continuity Value: 0
Sharp Continuity: 0
Continuity2 Value: 0

smoothSolver:  Solving for T, Initial residual = 0.00396404, Final residual = 1.76981e-07, No Iterations 1
DICPCG:  Solving for p_rgh, Initial residual = 0.385645, Final residual = 4.40057e-15, No Iterations 1
DICPCG:  Solving for p_rgh, Initial residual = 0.239218, Final residual = 5.84954e-15, No Iterations 1
DICPCG:  Solving for p_rgh, Initial residual = 0.239187, Final residual = 4.11724e-15, No Iterations 1
smoothSolver:  Solving for epsilon, Initial residual = 0.0464104, Final residual = 3.52899e-07, No Iterations 1
smoothSolver:  Solving for k, Initial residual = 0.0014611, Final residual = 2.00819e-07, No Iterations 1
ExecutionTime = 1.53552 s


Courant Number mean: 0.24185 max: 1.18377
Interface Courant Number mean: 0.0259578 max: 1.18377
deltaT = 0.000686112
Time = 0.243248s

smoothSolver:  Solving for alpha.water, Initial residual = 0.125221, Final residual = 4.91164e-18, No Iterations 1
Phase-1 volume fraction = 0.000679099  Min(alpha.water) = -1.16247e-18  Max(alpha.water) = 0.0301072
MULES: Correcting alpha.water
MULES: Correcting alpha.water
Phase-1 volume fraction = 0.00067838  Min(alpha.water) = -1.16247e-18  Max(alpha.water) = 0.0301072
DICPCG:  Solving for rhoSmear, Initial residual = 0, Final residual = 0, No Iterations 0
heavyVolL=0 [0 0 0 0 0 0 0] 0
heavyVolV=0 [0 0 0 0 0 0 0] 0
Continuity Value: 0
Sharp Continuity: 0
Continuity2 Value: 0

smoothSolver:  Solving for T, Initial residual = 0.00642648, Final residual = 2.00695e-07, No Iterations 1
DICPCG:  Solving for p_rgh, Initial residual = 0.489169, Final residual = 5.44277e-15, No Iterations 1
DICPCG:  Solving for p_rgh, Initial residual = 0.449156, Final residual = 7.28703e-15, No Iterations 1
DICPCG:  Solving for p_rgh, Initial residual = 0.449146, Final residual = 6.01601e-15, No Iterations 1
smoothSolver:  Solving for epsilon, Initial residual = 0.099744, Final residual = 3.78956e-07, No Iterations 1
smoothSolver:  Solving for k, Initial residual = 0.00239004, Final residual = 1.93977e-07, No Iterations 1
ExecutionTime = 1.54825 s


Courant Number mean: 0.218303 max: 1.19901
Interface Courant Number mean: 0.0196812 max: 1.19901
deltaT = 0.000572231
Time = 0.24382s

smoothSolver:  Solving for alpha.water, Initial residual = 0.127601, Final residual = 1.05793e-17, No Iterations 1
Phase-1 volume fraction = 0.000432263  Min(alpha.water) = -1.14114e-18  Max(alpha.water) = 0.0193252
MULES: Correcting alpha.water
MULES: Correcting alpha.water
Phase-1 volume fraction = 0.000431932  Min(alpha.water) = -1.14114e-18  Max(alpha.water) = 0.0193252
DICPCG:  Solving for rhoSmear, Initial residual = 0, Final residual = 0, No Iterations 0
heavyVolL=0 [0 0 0 0 0 0 0] 0
heavyVolV=0 [0 0 0 0 0 0 0] 0
Continuity Value: 0
Sharp Continuity: 0
Continuity2 Value: 0

smoothSolver:  Solving for T, Initial residual = 0.0104345, Final residual = 2.31356e-07, No Iterations 1
DICPCG:  Solving for p_rgh, Initial residual = 0.612999, Final residual = 5.64283e-15, No Iterations 1
DICPCG:  Solving for p_rgh, Initial residual = 0.677554, Final residual = 5.57739e-15, No Iterations 1
DICPCG:  Solving for p_rgh, Initial residual = 0.677563, Final residual = 5.91336e-15, No Iterations 1
smoothSolver:  Solving for epsilon, Initial residual = 0.141531, Final residual = 2.32197e-07, No Iterations 1
smoothSolver:  Solving for k, Initial residual = 0.00482264, Final residual = 1.7807e-07, No Iterations 1
ExecutionTime = 1.56103 s


Courant Number mean: 0.193965 max: 1.21121
Interface Courant Number mean: 0.0197621 max: 1.21121
deltaT = 0.000472447
Time = 0.244292s

smoothSolver:  Solving for alpha.water, Initial residual = 0.129403, Final residual = 9.88924e-18, No Iterations 1
Phase-1 volume fraction = 0.000274117  Min(alpha.water) = -1.11921e-18  Max(alpha.water) = 0.0122945
MULES: Correcting alpha.water
MULES: Correcting alpha.water
Phase-1 volume fraction = 0.000274007  Min(alpha.water) = -1.11921e-18  Max(alpha.water) = 0.0122945
DICPCG:  Solving for rhoSmear, Initial residual = 0, Final residual = 0, No Iterations 0
heavyVolL=0 [0 0 0 0 0 0 0] 0
heavyVolV=0 [0 0 0 0 0 0 0] 0
Continuity Value: 0
Sharp Continuity: 0
Continuity2 Value: 0

smoothSolver:  Solving for T, Initial residual = 0.0169706, Final residual = 2.76614e-07, No Iterations 1
DICPCG:  Solving for p_rgh, Initial residual = 0.77024, Final residual = 4.96457e-15, No Iterations 1
DICPCG:  Solving for p_rgh, Initial residual = 0.84084, Final residual = 5.53928e-15, No Iterations 1
DICPCG:  Solving for p_rgh, Initial residual = 0.840852, Final residual = 5.49187e-15, No Iterations 1
smoothSolver:  Solving for epsilon, Initial residual = 0.185236, Final residual = 2.31988e-07, No Iterations 1
smoothSolver:  Solving for k, Initial residual = 0.00836267, Final residual = 1.56513e-07, No Iterations 1
ExecutionTime = 1.5739 s


Courant Number mean: 0.169566 max: 1.21985
Interface Courant Number mean: 0.0197812 max: 1.21985
deltaT = 0.000387299
Time = 0.24468s

smoothSolver:  Solving for alpha.water, Initial residual = 0.130717, Final residual = 1.4431e-17, No Iterations 1
Phase-1 volume fraction = 0.000173572  Min(alpha.water) = -1.09846e-18  Max(alpha.water) = 0.00777223
MULES: Correcting alpha.water
MULES: Correcting alpha.water
Phase-1 volume fraction = 0.000173415  Min(alpha.water) = -1.09846e-18  Max(alpha.water) = 0.00777223
